/*---------------------------------------------------------------------------*\
  =========                 |
  \\      /  F ield         | OpenFOAM: The Open Source CFD Toolbox
   \\    /   O peration     | Website:  https://openfoam.org
    \\  /    A nd           | Version:  13
     \\/     M anipulation  |
\*---------------------------------------------------------------------------*/
Build  : 13-441953dfbb42
Exec   : checkMesh
Date   : May 13 2026
Time   : 02:21:04
Host   : "openfoam"
PID    : 2334
I/O    : uncollated
Case   : /home/ubuntu/OpenFOAM/ubuntu-v13/run/wStockTest/urans/winter
nProcs : 1
sigFpe : Floating point exception trapping - not supported on this platform
fileModificationChecking : Monitoring run-time modified files using timeStampMaster (fileModificationSkew 10)
allowSystemOperations : Allowing user-supplied system call operations

// * * * * * * * * * * * * * * * * * * * * * * * * * * * * * * * * * * * * * //
Create time

Create mesh for time = 0

Time = 0s

Mesh stats
    points:           303834
    faces:            825521
    internal faces:   781571
    cells:            261149
    faces per cell:   6.15393
    boundary patches: 6
    point zones:      0
    face zones:       0
    cell zones:       0

Overall number of cells of each type:
    hexahedra:     244697
    prisms:        1384
    wedges:        0
    pyramids:      0
    tet wedges:    4
    tetrahedra:    0
    polyhedra:     15064
    Breakdown of polyhedra by number of faces:
        faces   number of cells
            4   55
            5   624
            6   1644
            9   11715
           12   757
           15   201
           18   64
           21   4

Checking topology...
    Boundary definition OK.
    Cell to face addressing OK.
    Point usage OK.
    Upper triangular ordering OK.
    Face vertices OK.
    Number of regions: 1 (OK).

Checking patch topology for multiply connected surfaces...
                   Patch    Faces   Points                  Surface topology
                   inlet      800      861  ok (non-closed singly connected)
                  outlet      800      861  ok (non-closed singly connected)
                  ground    27052    27780  ok (non-closed singly connected)
            frontAndBack     2000     2142  ok (non-closed singly connected)
                     sky     2000     2091  ok (non-closed singly connected)
               buildings    11298    12146  ok (non-closed singly connected)

Checking geometry...
    Overall domain bounding box (-1424.05 -1421.34 -0.0145299) (3560.12 1421.34 146.5)
    Mesh has 3 geometric (non-empty/wedge) directions (1 1 1)
    Mesh has 3 solution (non-empty) directions (1 1 1)
    Max cell openness = 3.27789e-16 OK.
    Max aspect ratio = 31.2371 OK.
    Minimum face area = 0.819919. Maximum face area = 7085.45.  Face area magnitudes OK.
    Min volume = 6.99308. Max volume = 51922.  Total volume = 2.07438e+09.  Cell volumes OK.
    Mesh non-orthogonality Max: 80.3882 average: 16.9544
   *Number of severely non-orthogonal (> 70 degrees) faces: 35084.
    Non-orthogonality check OK.
    Face pyramids OK.
 ***Max skewness = 8.59181, 165 highly skew faces detected which may impair the quality of the results
    Coupled point location match (average 0) OK.

Failed 1 mesh checks.

End

