/*---------------------------------------------------------------------------*\
  =========                 |
  \\      /  F ield         | OpenFOAM: The Open Source CFD Toolbox
   \\    /   O peration     | Website:  https://openfoam.org
    \\  /    A nd           | Version:  13
     \\/     M anipulation  |
\*---------------------------------------------------------------------------*/
Build  : 13-441953dfbb42
Exec   : checkMesh
Date   : Jun 19 2026
Time   : 10:35:53
Host   : "openfoam"
PID    : 1590
I/O    : uncollated
Case   : /home/ubuntu/OpenFOAM/ubuntu-v13/run/wStockNoTerrain/urans/winter
nProcs : 1
sigFpe : Floating point exception trapping - not supported on this platform
fileModificationChecking : Monitoring run-time modified files using timeStampMaster (fileModificationSkew 10)
allowSystemOperations : Allowing user-supplied system call operations

// * * * * * * * * * * * * * * * * * * * * * * * * * * * * * * * * * * * * * //
Create time

Create mesh for time = 0

Time = 0s

Mesh stats
    points:           302176
    faces:            821522
    internal faces:   778513
    cells:            259953
    faces per cell:   6.15509
    boundary patches: 6
    point zones:      0
    face zones:       0
    cell zones:       0

Overall number of cells of each type:
    hexahedra:     244255
    prisms:        917
    wedges:        0
    pyramids:      0
    tet wedges:    2
    tetrahedra:    0
    polyhedra:     14779
    Breakdown of polyhedra by number of faces:
        faces   number of cells
            4   36
            5   492
            6   1559
            9   11743
           12   707
           15   194
           18   45
           21   3

Checking topology...
    Boundary definition OK.
    Cell to face addressing OK.
    Point usage OK.
    Upper triangular ordering OK.
    Face vertices OK.
    Number of regions: 1 (OK).

Checking patch topology for multiply connected surfaces...
                   Patch    Faces   Points                  Surface topology
                   inlet      800      861  ok (non-closed singly connected)
                  outlet      800      861  ok (non-closed singly connected)
                  ground    27153    27851  ok (non-closed singly connected)
            frontAndBack     2000     2142  ok (non-closed singly connected)
                     sky     2000     2091  ok (non-closed singly connected)
               buildings    10256    10954  ok (non-closed singly connected)

Checking geometry...
    Overall domain bounding box (-1600.36 -1600.36 0) (4000.9 1600.36 146.5)
    Mesh has 3 geometric (non-empty/wedge) directions (1 1 1)
    Mesh has 3 solution (non-empty) directions (1 1 1)
    Max cell openness = 3.45992e-16 OK.
    Max aspect ratio = 34.6256 OK.
    Minimum face area = 0.891075. Maximum face area = 8965.17.  Face area magnitudes OK.
    Min volume = 17.8767. Max volume = 65714.6.  Total volume = 2.625e+09.  Cell volumes OK.
    Mesh non-orthogonality Max: 80.9319 average: 17.1333
   *Number of severely non-orthogonal (> 70 degrees) faces: 35084.
    Non-orthogonality check OK.
    Face pyramids OK.
 ***Max skewness = 9.43986, 203 highly skew faces detected which may impair the quality of the results
    Coupled point location match (average 0) OK.

Failed 1 mesh checks.

End

