/*---------------------------------------------------------------------------*\
  =========                 |
  \\      /  F ield         | OpenFOAM: The Open Source CFD Toolbox
   \\    /   O peration     | Website:  https://openfoam.org
    \\  /    A nd           | Version:  13
     \\/     M anipulation  |
\*---------------------------------------------------------------------------*/
Build  : 13-441953dfbb42
Exec   : foamRun -solver incompressibleFluid
Date   : May 13 2026
Time   : 02:21:12
Host   : "openfoam"
PID    : 2337
I/O    : uncollated
Case   : /home/ubuntu/OpenFOAM/ubuntu-v13/run/wStockTest/urans/winter
nProcs : 1
sigFpe : Floating point exception trapping - not supported on this platform
fileModificationChecking : Monitoring run-time modified files using timeStampMaster (fileModificationSkew 10)
allowSystemOperations : Allowing user-supplied system call operations

// * * * * * * * * * * * * * * * * * * * * * * * * * * * * * * * * * * * * * //
Create time

Create mesh for time = 0

Selecting solver incompressibleFluid
Selecting viscosity model constant
Selecting turbulence model type RAS
    Selecting RAS turbulence model kOmegaSST
No MRF models present

Selecting patchDistMethod meshWave
Courant Number mean: 0.00420095 max: 0.120455

PIMPLE: No convergence criteria found


PIMPLE: No corrector convergence criteria found
        Calculations will do 2 corrections


PIMPLE: Operating solver in transient mode with 2 outer correctors



Starting time loop

Courant Number mean: 0.00420095 max: 0.120455
deltaT = 0.0595238
Time = 0.0595238s

PIMPLE: Iteration 1
smoothSolver:  Solving for Ux, Initial residual = 1, Final residual = 0.00031613, No Iterations 1
smoothSolver:  Solving for Uy, Initial residual = 1, Final residual = 0.00447287, No Iterations 1
smoothSolver:  Solving for Uz, Initial residual = 1, Final residual = 0.0020765, No Iterations 1
GAMG:  Solving for p, Initial residual = 1, Final residual = 0.0483114, No Iterations 43
GAMG:  Solving for p, Initial residual = 0.711865, Final residual = 0.0262824, No Iterations 3
GAMG:  Solving for p, Initial residual = 0.108122, Final residual = 0.00487082, No Iterations 5
time step continuity errors : sum local = 1.08647e-06, global = -7.14824e-08
GAMG:  Solving for p, Initial residual = 0.140489, Final residual = 0.00677763, No Iterations 39
GAMG:  Solving for p, Initial residual = 0.410593, Final residual = 0.0156128, No Iterations 3
GAMG:  Solving for p, Initial residual = 0.075419, Final residual = 9.46762e-07, No Iterations 271
time step continuity errors : sum local = 2.13516e-10, global = -2.31601e-11
PIMPLE: Iteration 2
smoothSolver:  Solving for Ux, Initial residual = 0.00771803, Final residual = 6.74038e-09, No Iterations 2
smoothSolver:  Solving for Uy, Initial residual = 0.0206245, Final residual = 1.60604e-08, No Iterations 2
smoothSolver:  Solving for Uz, Initial residual = 0.0193487, Final residual = 6.81167e-08, No Iterations 2
GAMG:  Solving for p, Initial residual = 0.236751, Final residual = 0.0112421, No Iterations 30
GAMG:  Solving for p, Initial residual = 0.471527, Final residual = 0.0178696, No Iterations 3
GAMG:  Solving for p, Initial residual = 0.0816072, Final residual = 0.00400333, No Iterations 6
time step continuity errors : sum local = 8.15538e-07, global = 9.44945e-08
GAMG:  Solving for p, Initial residual = 0.104764, Final residual = 0.00499018, No Iterations 29
GAMG:  Solving for p, Initial residual = 0.288299, Final residual = 0.0112222, No Iterations 3
GAMG:  Solving for p, Initial residual = 0.0572826, Final residual = 9.52137e-07, No Iterations 269
time step continuity errors : sum local = 1.97904e-10, global = -2.13788e-11, cumulative = -2.13788e-11
smoothSolver:  Solving for omega, Initial residual = 0.00721115, Final residual = 2.19625e-10, No Iterations 2
smoothSolver:  Solving for k, Initial residual = 1, Final residual = 8.64012e-08, No Iterations 2
ExecutionTime = 13.8047 s  ClockTime = 14 s

Courant Number mean: 0.00518508 max: 0.956628
deltaT = 0.0705782
Time = 0.130102s

PIMPLE: Iteration 1
smoothSolver:  Solving for Ux, Initial residual = 0.120822, Final residual = 2.47507e-05, No Iterations 1
smoothSolver:  Solving for Uy, Initial residual = 0.360512, Final residual = 0.000161547, No Iterations 1
smoothSolver:  Solving for Uz, Initial residual = 0.354589, Final residual = 0.000358527, No Iterations 1
GAMG:  Solving for p, Initial residual = 0.209052, Final residual = 0.00913827, No Iterations 14
GAMG:  Solving for p, Initial residual = 0.295582, Final residual = 0.0134226, No Iterations 3
GAMG:  Solving for p, Initial residual = 0.0993157, Final residual = 0.00475348, No Iterations 11
time step continuity errors : sum local = 5.61646e-07, global = -4.36444e-08
GAMG:  Solving for p, Initial residual = 0.165772, Final residual = 0.00772678, No Iterations 14
GAMG:  Solving for p, Initial residual = 0.227014, Final residual = 0.0106626, No Iterations 3
GAMG:  Solving for p, Initial residual = 0.0716065, Final residual = 9.68715e-07, No Iterations 210
time step continuity errors : sum local = 1.14254e-10, global = 1.47296e-11
PIMPLE: Iteration 2
smoothSolver:  Solving for Ux, Initial residual = 0.0200193, Final residual = 1.85132e-08, No Iterations 2
smoothSolver:  Solving for Uy, Initial residual = 0.0614914, Final residual = 1.56686e-09, No Iterations 3
smoothSolver:  Solving for Uz, Initial residual = 0.0641263, Final residual = 5.98446e-09, No Iterations 3
GAMG:  Solving for p, Initial residual = 0.205639, Final residual = 0.0100274, No Iterations 14
GAMG:  Solving for p, Initial residual = 0.309931, Final residual = 0.0138925, No Iterations 3
GAMG:  Solving for p, Initial residual = 0.0905473, Final residual = 0.00424696, No Iterations 11
time step continuity errors : sum local = 5.44983e-07, global = -4.2289e-08
GAMG:  Solving for p, Initial residual = 0.16681, Final residual = 0.00831252, No Iterations 14
GAMG:  Solving for p, Initial residual = 0.230442, Final residual = 0.0106807, No Iterations 3
GAMG:  Solving for p, Initial residual = 0.0640383, Final residual = 9.63273e-07, No Iterations 208
time step continuity errors : sum local = 1.25547e-10, global = 1.60266e-11, cumulative = -5.3522e-12
smoothSolver:  Solving for omega, Initial residual = 0.0057021, Final residual = 6.29838e-11, No Iterations 2
smoothSolver:  Solving for k, Initial residual = 0.987037, Final residual = 2.98946e-08, No Iterations 2
ExecutionTime = 23.2352 s  ClockTime = 24 s

Courant Number mean: 0.00616445 max: 1.13998
deltaT = 0.0839638
Time = 0.214066s

PIMPLE: Iteration 1
smoothSolver:  Solving for Ux, Initial residual = 0.075306, Final residual = 1.25186e-05, No Iterations 1
smoothSolver:  Solving for Uy, Initial residual = 0.142689, Final residual = 9.67404e-05, No Iterations 1
smoothSolver:  Solving for Uz, Initial residual = 0.160114, Final residual = 0.000194468, No Iterations 1
GAMG:  Solving for p, Initial residual = 0.183475, Final residual = 0.00767722, No Iterations 12
GAMG:  Solving for p, Initial residual = 0.198492, Final residual = 0.00905703, No Iterations 3
GAMG:  Solving for p, Initial residual = 0.0500431, Final residual = 0.00234165, No Iterations 13
time step continuity errors : sum local = 3.76522e-07, global = -2.40784e-08
GAMG:  Solving for p, Initial residual = 0.138863, Final residual = 0.00587075, No Iterations 12
GAMG:  Solving for p, Initial residual = 0.140919, Final residual = 0.00665298, No Iterations 3
GAMG:  Solving for p, Initial residual = 0.0351443, Final residual = 9.66521e-07, No Iterations 229
time step continuity errors : sum local = 1.57311e-10, global = -1.69224e-11
PIMPLE: Iteration 2
smoothSolver:  Solving for Ux, Initial residual = 0.0176116, Final residual = 1.4852e-08, No Iterations 2
smoothSolver:  Solving for Uy, Initial residual = 0.0278302, Final residual = 1.68134e-09, No Iterations 3
smoothSolver:  Solving for Uz, Initial residual = 0.0347212, Final residual = 5.58002e-09, No Iterations 3
GAMG:  Solving for p, Initial residual = 0.162663, Final residual = 0.00753683, No Iterations 12
GAMG:  Solving for p, Initial residual = 0.191215, Final residual = 0.00858804, No Iterations 3
GAMG:  Solving for p, Initial residual = 0.0458423, Final residual = 0.00203608, No Iterations 13
time step continuity errors : sum local = 3.56222e-07, global = -2.3001e-08
GAMG:  Solving for p, Initial residual = 0.1211, Final residual = 0.00559584, No Iterations 12
GAMG:  Solving for p, Initial residual = 0.133809, Final residual = 0.00621169, No Iterations 3
GAMG:  Solving for p, Initial residual = 0.0321567, Final residual = 9.62196e-07, No Iterations 213
time step continuity errors : sum local = 1.70415e-10, global = -1.82239e-11, cumulative = -2.35761e-11
smoothSolver:  Solving for omega, Initial residual = 0.00839589, Final residual = 1.57516e-10, No Iterations 2
smoothSolver:  Solving for k, Initial residual = 0.977004, Final residual = 4.92607e-08, No Iterations 2
ExecutionTime = 33.1241 s  ClockTime = 34 s

Courant Number mean: 0.00737782 max: 1.40109
deltaT = 0.099707
Time = 0.313773s

PIMPLE: Iteration 1
smoothSolver:  Solving for Ux, Initial residual = 0.0682595, Final residual = 8.13644e-06, No Iterations 1
smoothSolver:  Solving for Uy, Initial residual = 0.0504522, Final residual = 5.38283e-05, No Iterations 1
smoothSolver:  Solving for Uz, Initial residual = 0.0888777, Final residual = 9.13383e-05, No Iterations 1
GAMG:  Solving for p, Initial residual = 0.15949, Final residual = 0.00755442, No Iterations 10
GAMG:  Solving for p, Initial residual = 0.162607, Final residual = 0.00763395, No Iterations 3
GAMG:  Solving for p, Initial residual = 0.0378591, Final residual = 0.00172349, No Iterations 13
time step continuity errors : sum local = 4.16059e-07, global = -2.67752e-08
GAMG:  Solving for p, Initial residual = 0.115157, Final residual = 0.00547731, No Iterations 10
GAMG:  Solving for p, Initial residual = 0.112118, Final residual = 0.0054741, No Iterations 3
GAMG:  Solving for p, Initial residual = 0.0265298, Final residual = 9.95734e-07, No Iterations 203
time step continuity errors : sum local = 2.42313e-10, global = -2.59429e-11
PIMPLE: Iteration 2
smoothSolver:  Solving for Ux, Initial residual = 0.0178572, Final residual = 9.878e-09, No Iterations 2
smoothSolver:  Solving for Uy, Initial residual = 0.00761747, Final residual = 9.81207e-08, No Iterations 2
smoothSolver:  Solving for Uz, Initial residual = 0.0207424, Final residual = 2.83812e-09, No Iterations 3
GAMG:  Solving for p, Initial residual = 0.137955, Final residual = 0.00684317, No Iterations 9
GAMG:  Solving for p, Initial residual = 0.128172, Final residual = 0.00588056, No Iterations 3
GAMG:  Solving for p, Initial residual = 0.0295801, Final residual = 0.00147444, No Iterations 12
time step continuity errors : sum local = 3.64725e-07, global = -2.22495e-08
GAMG:  Solving for p, Initial residual = 0.09744, Final residual = 0.00405652, No Iterations 10
GAMG:  Solving for p, Initial residual = 0.0889057, Final residual = 0.00416086, No Iterations 3
GAMG:  Solving for p, Initial residual = 0.0208545, Final residual = 9.4697e-07, No Iterations 189
time step continuity errors : sum local = 2.36434e-10, global = -2.51245e-11, cumulative = -4.87006e-11
smoothSolver:  Solving for omega, Initial residual = 0.0103894, Final residual = 3.4431e-10, No Iterations 2
smoothSolver:  Solving for k, Initial residual = 0.778372, Final residual = 6.91633e-08, No Iterations 2
ExecutionTime = 42.3677 s  ClockTime = 43 s

Courant Number mean: 0.00883182 max: 1.6735
deltaT = 0.117156
Time = 0.430928s

PIMPLE: Iteration 1
smoothSolver:  Solving for Ux, Initial residual = 0.0670171, Final residual = 6.36628e-06, No Iterations 1
smoothSolver:  Solving for Uy, Initial residual = 0.035231, Final residual = 3.57984e-05, No Iterations 1
smoothSolver:  Solving for Uz, Initial residual = 0.0897914, Final residual = 0.000130667, No Iterations 1
GAMG:  Solving for p, Initial residual = 0.159786, Final residual = 0.00665708, No Iterations 5
GAMG:  Solving for p, Initial residual = 0.074206, Final residual = 0.00328739, No Iterations 4
GAMG:  Solving for p, Initial residual = 0.0184855, Final residual = 0.000918051, No Iterations 12
time step continuity errors : sum local = 2.7061e-07, global = -1.49062e-08
GAMG:  Solving for p, Initial residual = 0.113, Final residual = 0.00472956, No Iterations 5
GAMG:  Solving for p, Initial residual = 0.0507612, Final residual = 0.00236557, No Iterations 4
GAMG:  Solving for p, Initial residual = 0.0129536, Final residual = 9.43363e-07, No Iterations 192
time step continuity errors : sum local = 2.79494e-10, global = -3.00675e-11
PIMPLE: Iteration 2
smoothSolver:  Solving for Ux, Initial residual = 0.0186457, Final residual = 8.35891e-09, No Iterations 2
smoothSolver:  Solving for Uy, Initial residual = 0.012103, Final residual = 2.48192e-09, No Iterations 3
smoothSolver:  Solving for Uz, Initial residual = 0.0269432, Final residual = 1.3138e-08, No Iterations 3
GAMG:  Solving for p, Initial residual = 0.139014, Final residual = 0.00673217, No Iterations 4
GAMG:  Solving for p, Initial residual = 0.0566326, Final residual = 0.00261658, No Iterations 4
GAMG:  Solving for p, Initial residual = 0.0139912, Final residual = 0.000638209, No Iterations 9
time step continuity errors : sum local = 1.88031e-07, global = -1.12052e-08
GAMG:  Solving for p, Initial residual = 0.0971564, Final residual = 0.00476947, No Iterations 4
GAMG:  Solving for p, Initial residual = 0.0390296, Final residual = 0.00188008, No Iterations 4
GAMG:  Solving for p, Initial residual = 0.00992158, Final residual = 9.83052e-07, No Iterations 175
time step continuity errors : sum local = 2.90383e-10, global = -3.11925e-11, cumulative = -7.98931e-11
smoothSolver:  Solving for omega, Initial residual = 0.0122426, Final residual = 7.11257e-10, No Iterations 2
smoothSolver:  Solving for k, Initial residual = 0.606328, Final residual = 9.32831e-08, No Iterations 2
ExecutionTime = 50.4587 s  ClockTime = 51 s

Courant Number mean: 0.0104702 max: 1.88775
deltaT = 0.138457
Time = 0.569385s

PIMPLE: Iteration 1
smoothSolver:  Solving for Ux, Initial residual = 0.0687146, Final residual = 8.91739e-06, No Iterations 1
smoothSolver:  Solving for Uy, Initial residual = 0.0618134, Final residual = 7.32056e-05, No Iterations 1
smoothSolver:  Solving for Uz, Initial residual = 0.105014, Final residual = 0.000213635, No Iterations 1
GAMG:  Solving for p, Initial residual = 0.141187, Final residual = 0.00671577, No Iterations 4
GAMG:  Solving for p, Initial residual = 0.0543795, Final residual = 0.00250396, No Iterations 5
GAMG:  Solving for p, Initial residual = 0.0165271, Final residual = 0.000796965, No Iterations 10
time step continuity errors : sum local = 2.96297e-07, global = -1.96751e-08
GAMG:  Solving for p, Initial residual = 0.100972, Final residual = 0.00484884, No Iterations 4
GAMG:  Solving for p, Initial residual = 0.038002, Final residual = 0.00183809, No Iterations 5
GAMG:  Solving for p, Initial residual = 0.0117149, Final residual = 9.52642e-07, No Iterations 184
time step continuity errors : sum local = 3.53701e-10, global = -3.85053e-11
PIMPLE: Iteration 2
smoothSolver:  Solving for Ux, Initial residual = 0.019542, Final residual = 1.60519e-08, No Iterations 2
smoothSolver:  Solving for Uy, Initial residual = 0.0171832, Final residual = 7.14967e-09, No Iterations 3
smoothSolver:  Solving for Uz, Initial residual = 0.02832, Final residual = 2.32579e-08, No Iterations 3
GAMG:  Solving for p, Initial residual = 0.118235, Final residual = 0.00533737, No Iterations 5
GAMG:  Solving for p, Initial residual = 0.0523314, Final residual = 0.00248707, No Iterations 5
GAMG:  Solving for p, Initial residual = 0.0163487, Final residual = 0.000777684, No Iterations 11
time step continuity errors : sum local = 2.88991e-07, global = -2.37565e-08
GAMG:  Solving for p, Initial residual = 0.0845251, Final residual = 0.00382431, No Iterations 5
GAMG:  Solving for p, Initial residual = 0.036522, Final residual = 0.00181418, No Iterations 5
GAMG:  Solving for p, Initial residual = 0.0115358, Final residual = 9.94445e-07, No Iterations 185
time step continuity errors : sum local = 3.69184e-10, global = -4.05627e-11, cumulative = -1.20456e-10
smoothSolver:  Solving for omega, Initial residual = 0.0143502, Final residual = 1.4908e-09, No Iterations 2
smoothSolver:  Solving for k, Initial residual = 0.541006, Final residual = 1.36558e-09, No Iterations 3
ExecutionTime = 58.5394 s  ClockTime = 59 s

Courant Number mean: 0.0124984 max: 2.08252
deltaT = 0.164097
Time = 0.733482s

PIMPLE: Iteration 1
smoothSolver:  Solving for Ux, Initial residual = 0.0704842, Final residual = 1.15453e-05, No Iterations 1
smoothSolver:  Solving for Uy, Initial residual = 0.0516543, Final residual = 8.65755e-05, No Iterations 1
smoothSolver:  Solving for Uz, Initial residual = 0.0872072, Final residual = 0.000193041, No Iterations 1
GAMG:  Solving for p, Initial residual = 0.096627, Final residual = 0.00399872, No Iterations 6
GAMG:  Solving for p, Initial residual = 0.0462289, Final residual = 0.00217787, No Iterations 5
GAMG:  Solving for p, Initial residual = 0.0143156, Final residual = 0.000678712, No Iterations 11
time step continuity errors : sum local = 3.30526e-07, global = 2.4859e-08
GAMG:  Solving for p, Initial residual = 0.0696356, Final residual = 0.0028902, No Iterations 6
GAMG:  Solving for p, Initial residual = 0.0320568, Final residual = 0.00159403, No Iterations 5
GAMG:  Solving for p, Initial residual = 0.0100929, Final residual = 9.19627e-07, No Iterations 125
time step continuity errors : sum local = 4.47472e-10, global = 4.00738e-11
PIMPLE: Iteration 2
smoothSolver:  Solving for Ux, Initial residual = 0.0201475, Final residual = 2.18063e-08, No Iterations 2
smoothSolver:  Solving for Uy, Initial residual = 0.0127515, Final residual = 1.17624e-08, No Iterations 3
smoothSolver:  Solving for Uz, Initial residual = 0.0228639, Final residual = 2.48521e-08, No Iterations 3
GAMG:  Solving for p, Initial residual = 0.0792186, Final residual = 0.00368904, No Iterations 6
GAMG:  Solving for p, Initial residual = 0.0411906, Final residual = 0.00204021, No Iterations 5
GAMG:  Solving for p, Initial residual = 0.0129496, Final residual = 0.000640124, No Iterations 12
time step continuity errors : sum local = 3.12272e-07, global = -3.03665e-08
GAMG:  Solving for p, Initial residual = 0.0570127, Final residual = 0.00261627, No Iterations 6
GAMG:  Solving for p, Initial residual = 0.028579, Final residual = 0.00123284, No Iterations 6
GAMG:  Solving for p, Initial residual = 0.00936894, Final residual = 9.96014e-07, No Iterations 136
time step continuity errors : sum local = 4.86052e-10, global = 5.71203e-11, cumulative = -6.33355e-11
smoothSolver:  Solving for omega, Initial residual = 0.0167397, Final residual = 3.18321e-09, No Iterations 2
smoothSolver:  Solving for k, Initial residual = 0.523998, Final residual = 2.85738e-09, No Iterations 3
ExecutionTime = 64.9201 s  ClockTime = 66 s

Courant Number mean: 0.0149846 max: 2.29628
deltaT = 0.193933
Time = 0.927415s

PIMPLE: Iteration 1
smoothSolver:  Solving for Ux, Initial residual = 0.0715539, Final residual = 1.4046e-05, No Iterations 1
smoothSolver:  Solving for Uy, Initial residual = 0.025056, Final residual = 6.6659e-05, No Iterations 1
smoothSolver:  Solving for Uz, Initial residual = 0.069487, Final residual = 0.000153792, No Iterations 1
GAMG:  Solving for p, Initial residual = 0.0806673, Final residual = 0.00393714, No Iterations 4
GAMG:  Solving for p, Initial residual = 0.0311594, Final residual = 0.00151509, No Iterations 7
GAMG:  Solving for p, Initial residual = 0.011658, Final residual = 0.000509498, No Iterations 11
time step continuity errors : sum local = 3.26002e-07, global = 2.1656e-08
GAMG:  Solving for p, Initial residual = 0.0574968, Final residual = 0.00280126, No Iterations 4
GAMG:  Solving for p, Initial residual = 0.0213549, Final residual = 0.000911788, No Iterations 8
GAMG:  Solving for p, Initial residual = 0.0084253, Final residual = 9.75804e-07, No Iterations 150
time step continuity errors : sum local = 6.23929e-10, global = 6.62701e-11
PIMPLE: Iteration 2
smoothSolver:  Solving for Ux, Initial residual = 0.0205275, Final residual = 2.49666e-08, No Iterations 2
smoothSolver:  Solving for Uy, Initial residual = 0.0061755, Final residual = 1.36833e-08, No Iterations 3
smoothSolver:  Solving for Uz, Initial residual = 0.0192555, Final residual = 2.57465e-08, No Iterations 3
GAMG:  Solving for p, Initial residual = 0.0679603, Final residual = 0.00323601, No Iterations 4
GAMG:  Solving for p, Initial residual = 0.0252598, Final residual = 0.00125549, No Iterations 6
GAMG:  Solving for p, Initial residual = 0.00875468, Final residual = 0.000401089, No Iterations 11
time step continuity errors : sum local = 2.58202e-07, global = 1.80702e-08
GAMG:  Solving for p, Initial residual = 0.0481255, Final residual = 0.00229342, No Iterations 4
GAMG:  Solving for p, Initial residual = 0.0175008, Final residual = 0.000756924, No Iterations 7
GAMG:  Solving for p, Initial residual = 0.00633139, Final residual = 9.59902e-07, No Iterations 122
time step continuity errors : sum local = 6.17861e-10, global = 6.33619e-11, cumulative = 2.64019e-14
smoothSolver:  Solving for omega, Initial residual = 0.0191412, Final residual = 6.44222e-09, No Iterations 2
smoothSolver:  Solving for k, Initial residual = 0.536222, Final residual = 5.94565e-09, No Iterations 3
ExecutionTime = 71.4597 s  ClockTime = 72 s

Courant Number mean: 0.0179456 max: 2.63214
deltaT = 0.226255
Time = 1.15367s

PIMPLE: Iteration 1
smoothSolver:  Solving for Ux, Initial residual = 0.0717667, Final residual = 1.78143e-05, No Iterations 1
smoothSolver:  Solving for Uy, Initial residual = 0.0275316, Final residual = 8.49927e-05, No Iterations 1
smoothSolver:  Solving for Uz, Initial residual = 0.0647861, Final residual = 0.000162975, No Iterations 1
GAMG:  Solving for p, Initial residual = 0.0686551, Final residual = 0.00339816, No Iterations 3
GAMG:  Solving for p, Initial residual = 0.019649, Final residual = 0.000902241, No Iterations 6
GAMG:  Solving for p, Initial residual = 0.00635682, Final residual = 0.000287646, No Iterations 12
time step continuity errors : sum local = 2.44568e-07, global = 1.60283e-08
GAMG:  Solving for p, Initial residual = 0.0481822, Final residual = 0.00238406, No Iterations 3
GAMG:  Solving for p, Initial residual = 0.0134736, Final residual = 0.000661985, No Iterations 6
GAMG:  Solving for p, Initial residual = 0.00448003, Final residual = 9.64583e-07, No Iterations 160
time step continuity errors : sum local = 8.18101e-10, global = 8.90113e-11
PIMPLE: Iteration 2
smoothSolver:  Solving for Ux, Initial residual = 0.0207556, Final residual = 3.875e-08, No Iterations 2
smoothSolver:  Solving for Uy, Initial residual = 0.00834148, Final residual = 2.82678e-08, No Iterations 3
smoothSolver:  Solving for Uz, Initial residual = 0.01809, Final residual = 3.96471e-08, No Iterations 3
GAMG:  Solving for p, Initial residual = 0.0555369, Final residual = 0.0020647, No Iterations 4
GAMG:  Solving for p, Initial residual = 0.0179699, Final residual = 0.000805274, No Iterations 4
GAMG:  Solving for p, Initial residual = 0.00472587, Final residual = 0.00022208, No Iterations 9
time step continuity errors : sum local = 1.90027e-07, global = 1.15138e-08
GAMG:  Solving for p, Initial residual = 0.0386868, Final residual = 0.00145371, No Iterations 4
GAMG:  Solving for p, Initial residual = 0.0123303, Final residual = 0.000589032, No Iterations 4
GAMG:  Solving for p, Initial residual = 0.00335114, Final residual = 9.70446e-07, No Iterations 123
time step continuity errors : sum local = 8.29106e-10, global = 8.70929e-11, cumulative = 8.71193e-11
smoothSolver:  Solving for omega, Initial residual = 0.0218592, Final residual = 1.24985e-08, No Iterations 2
smoothSolver:  Solving for k, Initial residual = 0.56859, Final residual = 1.13653e-08, No Iterations 3
ExecutionTime = 78.0135 s  ClockTime = 79 s

Courant Number mean: 0.0212589 max: 3.05449
deltaT = 0.256422
--> FOAM Warning : 
    From function virtual Foam::Time& Foam::Time::operator++()
    in file db/Time/Time.C at line 1304
    Increased the timePrecision from 6 to 7 to distinguish between timeNames at time 1.410091
Time = 1.410091s

PIMPLE: Iteration 1
smoothSolver:  Solving for Ux, Initial residual = 0.0707126, Final residual = 2.21305e-05, No Iterations 1
smoothSolver:  Solving for Uy, Initial residual = 0.0296695, Final residual = 0.000104832, No Iterations 1
smoothSolver:  Solving for Uz, Initial residual = 0.0563761, Final residual = 0.000148268, No Iterations 1
GAMG:  Solving for p, Initial residual = 0.0477156, Final residual = 0.00206153, No Iterations 4
GAMG:  Solving for p, Initial residual = 0.0156016, Final residual = 0.000680277, No Iterations 5
GAMG:  Solving for p, Initial residual = 0.00446679, Final residual = 0.0002087, No Iterations 12
time step continuity errors : sum local = 2.25382e-07, global = 1.3454e-08
GAMG:  Solving for p, Initial residual = 0.0331823, Final residual = 0.00144066, No Iterations 4
GAMG:  Solving for p, Initial residual = 0.0106977, Final residual = 0.000497469, No Iterations 5
GAMG:  Solving for p, Initial residual = 0.0031456, Final residual = 9.51549e-07, No Iterations 154
time step continuity errors : sum local = 1.02498e-09, global = 1.12376e-10
PIMPLE: Iteration 2
smoothSolver:  Solving for Ux, Initial residual = 0.0207187, Final residual = 5.91957e-08, No Iterations 2
smoothSolver:  Solving for Uy, Initial residual = 0.00787334, Final residual = 4.35707e-08, No Iterations 3
smoothSolver:  Solving for Uz, Initial residual = 0.0157298, Final residual = 3.95817e-08, No Iterations 3
GAMG:  Solving for p, Initial residual = 0.0370517, Final residual = 0.001419, No Iterations 5
GAMG:  Solving for p, Initial residual = 0.0145369, Final residual = 0.000666243, No Iterations 4
GAMG:  Solving for p, Initial residual = 0.00398483, Final residual = 0.000197283, No Iterations 10
time step continuity errors : sum local = 2.14673e-07, global = 1.35746e-08
GAMG:  Solving for p, Initial residual = 0.0257252, Final residual = 0.000989031, No Iterations 5
GAMG:  Solving for p, Initial residual = 0.00997685, Final residual = 0.000477869, No Iterations 4
GAMG:  Solving for p, Initial residual = 0.00277123, Final residual = 9.43376e-07, No Iterations 114
time step continuity errors : sum local = 1.02544e-09, global = 1.08777e-10, cumulative = 1.95897e-10
smoothSolver:  Solving for omega, Initial residual = 0.0241955, Final residual = 2.14738e-08, No Iterations 2
smoothSolver:  Solving for k, Initial residual = 0.606738, Final residual = 1.97125e-08, No Iterations 3
ExecutionTime = 84.345 s  ClockTime = 85 s

Courant Number mean: 0.0245088 max: 3.47597
deltaT = 0.299159
Time = 1.70925s

PIMPLE: Iteration 1
smoothSolver:  Solving for Ux, Initial residual = 0.0727302, Final residual = 2.91252e-05, No Iterations 1
smoothSolver:  Solving for Uy, Initial residual = 0.0216615, Final residual = 0.000104312, No Iterations 1
smoothSolver:  Solving for Uz, Initial residual = 0.049123, Final residual = 0.000132901, No Iterations 1
GAMG:  Solving for p, Initial residual = 0.0336139, Final residual = 0.00125389, No Iterations 5
GAMG:  Solving for p, Initial residual = 0.0113877, Final residual = 0.00053348, No Iterations 6
GAMG:  Solving for p, Initial residual = 0.00358359, Final residual = 0.000158586, No Iterations 16
time step continuity errors : sum local = 2.26501e-07, global = 1.93626e-08
GAMG:  Solving for p, Initial residual = 0.0231747, Final residual = 0.000874534, No Iterations 5
GAMG:  Solving for p, Initial residual = 0.00774424, Final residual = 0.000353349, No Iterations 8
GAMG:  Solving for p, Initial residual = 0.00277428, Final residual = 9.43891e-07, No Iterations 164
time step continuity errors : sum local = 1.3423e-09, global = 1.49375e-10
PIMPLE: Iteration 2
smoothSolver:  Solving for Ux, Initial residual = 0.0215438, Final residual = 9.27509e-08, No Iterations 2
smoothSolver:  Solving for Uy, Initial residual = 0.00561569, Final residual = 6.02041e-08, No Iterations 3
smoothSolver:  Solving for Uz, Initial residual = 0.0137761, Final residual = 3.92421e-08, No Iterations 3
GAMG:  Solving for p, Initial residual = 0.0266603, Final residual = 0.00128452, No Iterations 4
GAMG:  Solving for p, Initial residual = 0.0087664, Final residual = 0.000383696, No Iterations 7
GAMG:  Solving for p, Initial residual = 0.00333917, Final residual = 0.000144601, No Iterations 10
time step continuity errors : sum local = 2.07228e-07, global = 1.33487e-08
GAMG:  Solving for p, Initial residual = 0.0185435, Final residual = 0.000893622, No Iterations 4
GAMG:  Solving for p, Initial residual = 0.00601703, Final residual = 0.000278222, No Iterations 7
GAMG:  Solving for p, Initial residual = 0.00233548, Final residual = 9.89796e-07, No Iterations 138
time step continuity errors : sum local = 1.41706e-09, global = 1.57954e-10, cumulative = 3.53851e-10
smoothSolver:  Solving for omega, Initial residual = 0.0272987, Final residual = 3.99169e-08, No Iterations 2
smoothSolver:  Solving for k, Initial residual = 0.707014, Final residual = 4.09606e-08, No Iterations 3
ExecutionTime = 91.4976 s  ClockTime = 92 s

Courant Number mean: 0.0291451 max: 4.0726
deltaT = 0.329075
Time = 2.038325s

PIMPLE: Iteration 1
smoothSolver:  Solving for Ux, Initial residual = 0.0715298, Final residual = 3.38904e-05, No Iterations 1
smoothSolver:  Solving for Uy, Initial residual = 0.0146466, Final residual = 8.20809e-05, No Iterations 1
smoothSolver:  Solving for Uz, Initial residual = 0.0405944, Final residual = 0.000126094, No Iterations 1
GAMG:  Solving for p, Initial residual = 0.0287097, Final residual = 0.00127297, No Iterations 3
GAMG:  Solving for p, Initial residual = 0.00680788, Final residual = 0.000289723, No Iterations 8
GAMG:  Solving for p, Initial residual = 0.00269686, Final residual = 0.000118849, No Iterations 10
time step continuity errors : sum local = 2.04751e-07, global = 1.06444e-08
GAMG:  Solving for p, Initial residual = 0.0199636, Final residual = 0.000881258, No Iterations 3
GAMG:  Solving for p, Initial residual = 0.0046651, Final residual = 0.000212221, No Iterations 8
GAMG:  Solving for p, Initial residual = 0.00186811, Final residual = 9.98579e-07, No Iterations 126
time step continuity errors : sum local = 1.71851e-09, global = 1.88949e-10
PIMPLE: Iteration 2
smoothSolver:  Solving for Ux, Initial residual = 0.0215181, Final residual = 2.8573e-09, No Iterations 3
smoothSolver:  Solving for Uy, Initial residual = 0.00427355, Final residual = 5.9747e-08, No Iterations 3
smoothSolver:  Solving for Uz, Initial residual = 0.0116109, Final residual = 4.98039e-08, No Iterations 3
GAMG:  Solving for p, Initial residual = 0.0228221, Final residual = 0.00105176, No Iterations 3
GAMG:  Solving for p, Initial residual = 0.00576743, Final residual = 0.000239017, No Iterations 7
GAMG:  Solving for p, Initial residual = 0.00211019, Final residual = 0.000104454, No Iterations 8
time step continuity errors : sum local = 1.80885e-07, global = -9.57646e-09
GAMG:  Solving for p, Initial residual = 0.0158499, Final residual = 0.000744592, No Iterations 3
GAMG:  Solving for p, Initial residual = 0.00397732, Final residual = 0.00017561, No Iterations 7
GAMG:  Solving for p, Initial residual = 0.00147858, Final residual = 9.47984e-07, No Iterations 110
time step continuity errors : sum local = 1.64162e-09, global = -1.79277e-10, cumulative = 1.74573e-10
smoothSolver:  Solving for omega, Initial residual = 0.0286673, Final residual = 5.93769e-08, No Iterations 2
smoothSolver:  Solving for k, Initial residual = 0.794433, Final residual = 6.70883e-08, No Iterations 3
ExecutionTime = 97.3221 s  ClockTime = 98 s

Courant Number mean: 0.0327166 max: 4.46394
deltaT = 0.329075
Time = 2.3674s

PIMPLE: Iteration 1
smoothSolver:  Solving for Ux, Initial residual = 0.0657773, Final residual = 3.19079e-05, No Iterations 1
smoothSolver:  Solving for Uy, Initial residual = 0.0124269, Final residual = 5.96736e-05, No Iterations 1
smoothSolver:  Solving for Uz, Initial residual = 0.0321448, Final residual = 0.000104004, No Iterations 1
GAMG:  Solving for p, Initial residual = 0.0226875, Final residual = 0.00106121, No Iterations 3
GAMG:  Solving for p, Initial residual = 0.00603646, Final residual = 0.000276518, No Iterations 8
GAMG:  Solving for p, Initial residual = 0.0024337, Final residual = 0.000118857, No Iterations 12
time step continuity errors : sum local = 2.1087e-07, global = -1.94965e-08
GAMG:  Solving for p, Initial residual = 0.0158345, Final residual = 0.000746102, No Iterations 3
GAMG:  Solving for p, Initial residual = 0.00416709, Final residual = 0.000203397, No Iterations 8
GAMG:  Solving for p, Initial residual = 0.00173995, Final residual = 9.50204e-07, No Iterations 162
time step continuity errors : sum local = 1.68855e-09, global = -1.90048e-10
PIMPLE: Iteration 2
smoothSolver:  Solving for Ux, Initial residual = 0.0200728, Final residual = 2.62512e-09, No Iterations 3
smoothSolver:  Solving for Uy, Initial residual = 0.00370871, Final residual = 4.84986e-08, No Iterations 3
smoothSolver:  Solving for Uz, Initial residual = 0.00947709, Final residual = 3.98255e-08, No Iterations 3
GAMG:  Solving for p, Initial residual = 0.0191793, Final residual = 0.000862011, No Iterations 4
GAMG:  Solving for p, Initial residual = 0.00574189, Final residual = 0.000236679, No Iterations 7
GAMG:  Solving for p, Initial residual = 0.00196581, Final residual = 9.0695e-05, No Iterations 16
time step continuity errors : sum local = 1.61929e-07, global = -1.60241e-08
GAMG:  Solving for p, Initial residual = 0.0133816, Final residual = 0.000575438, No Iterations 4
GAMG:  Solving for p, Initial residual = 0.00398043, Final residual = 0.000168996, No Iterations 7
GAMG:  Solving for p, Initial residual = 0.00139521, Final residual = 9.49485e-07, No Iterations 154
time step continuity errors : sum local = 1.69856e-09, global = -1.90076e-10, cumulative = -1.55029e-11
smoothSolver:  Solving for omega, Initial residual = 0.0277707, Final residual = 6.10785e-08, No Iterations 2
smoothSolver:  Solving for k, Initial residual = 0.809683, Final residual = 7.07503e-08, No Iterations 3
ExecutionTime = 104.716 s  ClockTime = 105 s

Courant Number mean: 0.0333757 max: 4.4369
deltaT = 0.329075
Time = 2.696475s

PIMPLE: Iteration 1
smoothSolver:  Solving for Ux, Initial residual = 0.0620309, Final residual = 3.02301e-05, No Iterations 1
smoothSolver:  Solving for Uy, Initial residual = 0.0106775, Final residual = 4.93595e-05, No Iterations 1
smoothSolver:  Solving for Uz, Initial residual = 0.0271598, Final residual = 8.53984e-05, No Iterations 1
GAMG:  Solving for p, Initial residual = 0.0182755, Final residual = 0.000829802, No Iterations 3
GAMG:  Solving for p, Initial residual = 0.0048595, Final residual = 0.000219466, No Iterations 8
GAMG:  Solving for p, Initial residual = 0.00199183, Final residual = 9.26828e-05, No Iterations 14
time step continuity errors : sum local = 1.6622e-07, global = -1.65041e-08
GAMG:  Solving for p, Initial residual = 0.0127537, Final residual = 0.000576718, No Iterations 3
GAMG:  Solving for p, Initial residual = 0.00348708, Final residual = 0.000159145, No Iterations 8
GAMG:  Solving for p, Initial residual = 0.00141652, Final residual = 9.99846e-07, No Iterations 154
time step continuity errors : sum local = 1.79687e-09, global = -2.01926e-10
PIMPLE: Iteration 2
smoothSolver:  Solving for Ux, Initial residual = 0.0190389, Final residual = 2.36037e-09, No Iterations 3
smoothSolver:  Solving for Uy, Initial residual = 0.00312595, Final residual = 4.08775e-08, No Iterations 3
smoothSolver:  Solving for Uz, Initial residual = 0.0080348, Final residual = 2.90798e-08, No Iterations 3
GAMG:  Solving for p, Initial residual = 0.015618, Final residual = 0.00062627, No Iterations 4
GAMG:  Solving for p, Initial residual = 0.00438185, Final residual = 0.000180231, No Iterations 7
GAMG:  Solving for p, Initial residual = 0.00154116, Final residual = 7.41411e-05, No Iterations 14
time step continuity errors : sum local = 1.33815e-07, global = -1.21134e-08
GAMG:  Solving for p, Initial residual = 0.010877, Final residual = 0.00040374, No Iterations 4
GAMG:  Solving for p, Initial residual = 0.00315061, Final residual = 0.000155949, No Iterations 6
GAMG:  Solving for p, Initial residual = 0.00109915, Final residual = 9.67946e-07, No Iterations 141
time step continuity errors : sum local = 1.75038e-09, global = -1.95534e-10, cumulative = -2.11037e-10
smoothSolver:  Solving for omega, Initial residual = 0.0264533, Final residual = 5.87441e-08, No Iterations 2
smoothSolver:  Solving for k, Initial residual = 0.84504, Final residual = 7.28104e-08, No Iterations 3
ExecutionTime = 111.795 s  ClockTime = 112 s

Courant Number mean: 0.0340247 max: 4.42583
deltaT = 0.329075
Time = 3.02555s

PIMPLE: Iteration 1
smoothSolver:  Solving for Ux, Initial residual = 0.0590458, Final residual = 2.89033e-05, No Iterations 1
smoothSolver:  Solving for Uy, Initial residual = 0.00867686, Final residual = 4.44613e-05, No Iterations 1
smoothSolver:  Solving for Uz, Initial residual = 0.0229446, Final residual = 7.08523e-05, No Iterations 1
GAMG:  Solving for p, Initial residual = 0.0153937, Final residual = 0.000624295, No Iterations 3
GAMG:  Solving for p, Initial residual = 0.00353174, Final residual = 0.000160778, No Iterations 8
GAMG:  Solving for p, Initial residual = 0.00158967, Final residual = 7.39056e-05, No Iterations 14
time step continuity errors : sum local = 1.33606e-07, global = -1.32467e-08
GAMG:  Solving for p, Initial residual = 0.0107325, Final residual = 0.000432312, No Iterations 3
GAMG:  Solving for p, Initial residual = 0.00244007, Final residual = 0.00011995, No Iterations 8
GAMG:  Solving for p, Initial residual = 0.00113802, Final residual = 9.68135e-07, No Iterations 150
time step continuity errors : sum local = 1.75227e-09, global = -1.97224e-10
PIMPLE: Iteration 2
smoothSolver:  Solving for Ux, Initial residual = 0.0181764, Final residual = 2.13148e-09, No Iterations 3
smoothSolver:  Solving for Uy, Initial residual = 0.00261398, Final residual = 3.66941e-08, No Iterations 3
smoothSolver:  Solving for Uz, Initial residual = 0.00677351, Final residual = 2.08442e-08, No Iterations 3
GAMG:  Solving for p, Initial residual = 0.0132691, Final residual = 0.000555778, No Iterations 3
GAMG:  Solving for p, Initial residual = 0.00293721, Final residual = 0.000140988, No Iterations 8
GAMG:  Solving for p, Initial residual = 0.00121197, Final residual = 6.02084e-05, No Iterations 10
time step continuity errors : sum local = 1.09233e-07, global = -8.85266e-09
GAMG:  Solving for p, Initial residual = 0.00923846, Final residual = 0.000390634, No Iterations 3
GAMG:  Solving for p, Initial residual = 0.00202576, Final residual = 8.85443e-05, No Iterations 10
GAMG:  Solving for p, Initial residual = 0.00095956, Final residual = 9.73332e-07, No Iterations 126
time step continuity errors : sum local = 1.76772e-09, global = -1.96539e-10, cumulative = -4.07576e-10
smoothSolver:  Solving for omega, Initial residual = 0.0250491, Final residual = 5.60861e-08, No Iterations 2
smoothSolver:  Solving for k, Initial residual = 0.838802, Final residual = 7.12777e-08, No Iterations 3
ExecutionTime = 118.475 s  ClockTime = 119 s

Courant Number mean: 0.0346591 max: 4.43992
deltaT = 0.329075
Time = 3.354625s

PIMPLE: Iteration 1
smoothSolver:  Solving for Ux, Initial residual = 0.0564536, Final residual = 2.77467e-05, No Iterations 1
smoothSolver:  Solving for Uy, Initial residual = 0.00757571, Final residual = 4.25318e-05, No Iterations 1
smoothSolver:  Solving for Uz, Initial residual = 0.0193253, Final residual = 5.91974e-05, No Iterations 1
GAMG:  Solving for p, Initial residual = 0.0129609, Final residual = 0.000473417, No Iterations 3
GAMG:  Solving for p, Initial residual = 0.00289381, Final residual = 0.000144479, No Iterations 6
GAMG:  Solving for p, Initial residual = 0.0011438, Final residual = 5.66495e-05, No Iterations 11
time step continuity errors : sum local = 1.02926e-07, global = 1.3846e-08
GAMG:  Solving for p, Initial residual = 0.00903588, Final residual = 0.000329456, No Iterations 3
GAMG:  Solving for p, Initial residual = 0.0019983, Final residual = 9.4378e-05, No Iterations 7
GAMG:  Solving for p, Initial residual = 0.00086149, Final residual = 9.79948e-07, No Iterations 135
time step continuity errors : sum local = 1.78146e-09, global = -2.03075e-10
PIMPLE: Iteration 2
smoothSolver:  Solving for Ux, Initial residual = 0.0174073, Final residual = 9.68842e-08, No Iterations 2
smoothSolver:  Solving for Uy, Initial residual = 0.00254373, Final residual = 3.42308e-08, No Iterations 3
smoothSolver:  Solving for Uz, Initial residual = 0.00574035, Final residual = 1.49625e-08, No Iterations 3
GAMG:  Solving for p, Initial residual = 0.010961, Final residual = 0.00037226, No Iterations 3
GAMG:  Solving for p, Initial residual = 0.00244509, Final residual = 0.000115158, No Iterations 5
GAMG:  Solving for p, Initial residual = 0.000777991, Final residual = 3.83946e-05, No Iterations 8
time step continuity errors : sum local = 6.98575e-08, global = 7.72228e-09
GAMG:  Solving for p, Initial residual = 0.00764111, Final residual = 0.000260256, No Iterations 3
GAMG:  Solving for p, Initial residual = 0.001684, Final residual = 8.4146e-05, No Iterations 5
GAMG:  Solving for p, Initial residual = 0.000544613, Final residual = 9.38375e-07, No Iterations 69
time step continuity errors : sum local = 1.70749e-09, global = -1.79029e-10, cumulative = -5.86605e-10
smoothSolver:  Solving for omega, Initial residual = 0.0236631, Final residual = 5.32792e-08, No Iterations 2
smoothSolver:  Solving for k, Initial residual = 0.834772, Final residual = 6.89099e-08, No Iterations 3
ExecutionTime = 123.646 s  ClockTime = 124 s

Courant Number mean: 0.0352784 max: 4.47195
deltaT = 0.329075
Time = 3.6837s

PIMPLE: Iteration 1
smoothSolver:  Solving for Ux, Initial residual = 0.0540887, Final residual = 2.66436e-05, No Iterations 1
smoothSolver:  Solving for Uy, Initial residual = 0.00812503, Final residual = 4.09128e-05, No Iterations 1
smoothSolver:  Solving for Uz, Initial residual = 0.0166287, Final residual = 4.89473e-05, No Iterations 1
GAMG:  Solving for p, Initial residual = 0.0107172, Final residual = 0.000446272, No Iterations 3
GAMG:  Solving for p, Initial residual = 0.00245218, Final residual = 0.000117379, No Iterations 7
GAMG:  Solving for p, Initial residual = 0.000915747, Final residual = 4.56072e-05, No Iterations 8
time step continuity errors : sum local = 8.3001e-08, global = 5.92699e-09
GAMG:  Solving for p, Initial residual = 0.00749033, Final residual = 0.000314149, No Iterations 3
GAMG:  Solving for p, Initial residual = 0.00169591, Final residual = 6.44002e-05, No Iterations 9
GAMG:  Solving for p, Initial residual = 0.000655659, Final residual = 9.3701e-07, No Iterations 88
time step continuity errors : sum local = 1.705e-09, global = 1.82016e-10
PIMPLE: Iteration 2
smoothSolver:  Solving for Ux, Initial residual = 0.0166872, Final residual = 9.204e-08, No Iterations 2
smoothSolver:  Solving for Uy, Initial residual = 0.00276568, Final residual = 3.15857e-08, No Iterations 3
smoothSolver:  Solving for Uz, Initial residual = 0.00503091, Final residual = 1.28558e-08, No Iterations 3
GAMG:  Solving for p, Initial residual = 0.009155, Final residual = 0.000374178, No Iterations 3
GAMG:  Solving for p, Initial residual = 0.00209595, Final residual = 8.76805e-05, No Iterations 9
GAMG:  Solving for p, Initial residual = 0.000976297, Final residual = 4.76897e-05, No Iterations 8
time step continuity errors : sum local = 8.67037e-08, global = 7.73934e-09
GAMG:  Solving for p, Initial residual = 0.00641463, Final residual = 0.00026613, No Iterations 3
GAMG:  Solving for p, Initial residual = 0.00145215, Final residual = 6.95363e-05, No Iterations 9
GAMG:  Solving for p, Initial residual = 0.000752796, Final residual = 9.7624e-07, No Iterations 126
time step continuity errors : sum local = 1.77395e-09, global = 1.98939e-10, cumulative = -3.87666e-10
smoothSolver:  Solving for omega, Initial residual = 0.0223264, Final residual = 5.04155e-08, No Iterations 2
smoothSolver:  Solving for k, Initial residual = 0.830091, Final residual = 6.75061e-08, No Iterations 3
ExecutionTime = 129.121 s  ClockTime = 130 s

Courant Number mean: 0.0358815 max: 4.51007
deltaT = 0.329075
Time = 4.012775s

PIMPLE: Iteration 1
smoothSolver:  Solving for Ux, Initial residual = 0.0518392, Final residual = 2.5616e-05, No Iterations 1
smoothSolver:  Solving for Uy, Initial residual = 0.00849332, Final residual = 3.8915e-05, No Iterations 1
smoothSolver:  Solving for Uz, Initial residual = 0.0147051, Final residual = 4.1131e-05, No Iterations 1
GAMG:  Solving for p, Initial residual = 0.00935871, Final residual = 0.000335178, No Iterations 4
GAMG:  Solving for p, Initial residual = 0.00213363, Final residual = 9.91479e-05, No Iterations 10
GAMG:  Solving for p, Initial residual = 0.000925007, Final residual = 4.52324e-05, No Iterations 16
time step continuity errors : sum local = 8.20439e-08, global = 8.39302e-09
GAMG:  Solving for p, Initial residual = 0.00655527, Final residual = 0.000238731, No Iterations 4
GAMG:  Solving for p, Initial residual = 0.00147696, Final residual = 6.51975e-05, No Iterations 12
GAMG:  Solving for p, Initial residual = 0.000768068, Final residual = 9.44118e-07, No Iterations 130
time step continuity errors : sum local = 1.71065e-09, global = 1.90165e-10
PIMPLE: Iteration 2
smoothSolver:  Solving for Ux, Initial residual = 0.0159875, Final residual = 8.76137e-08, No Iterations 2
smoothSolver:  Solving for Uy, Initial residual = 0.002842, Final residual = 2.87377e-08, No Iterations 3
smoothSolver:  Solving for Uz, Initial residual = 0.00450111, Final residual = 1.13545e-08, No Iterations 3
GAMG:  Solving for p, Initial residual = 0.00805777, Final residual = 0.000307862, No Iterations 4
GAMG:  Solving for p, Initial residual = 0.00198147, Final residual = 9.12834e-05, No Iterations 14
GAMG:  Solving for p, Initial residual = 0.001726, Final residual = 7.76749e-05, No Iterations 6
time step continuity errors : sum local = 1.40398e-07, global = 1.45258e-08
GAMG:  Solving for p, Initial residual = 0.00568357, Final residual = 0.000230676, No Iterations 4
GAMG:  Solving for p, Initial residual = 0.00142221, Final residual = 6.7591e-05, No Iterations 16
GAMG:  Solving for p, Initial residual = 0.00144368, Final residual = 9.65683e-07, No Iterations 142
time step continuity errors : sum local = 1.74334e-09, global = 1.95503e-10, cumulative = -1.92163e-10
smoothSolver:  Solving for omega, Initial residual = 0.0210538, Final residual = 4.76908e-08, No Iterations 2
smoothSolver:  Solving for k, Initial residual = 0.821892, Final residual = 6.6504e-08, No Iterations 3
ExecutionTime = 136.072 s  ClockTime = 137 s

Courant Number mean: 0.0364675 max: 4.54835
deltaT = 0.329075
Time = 4.34185s

PIMPLE: Iteration 1
smoothSolver:  Solving for Ux, Initial residual = 0.0496374, Final residual = 2.45688e-05, No Iterations 1
smoothSolver:  Solving for Uy, Initial residual = 0.00851433, Final residual = 3.68876e-05, No Iterations 1
smoothSolver:  Solving for Uz, Initial residual = 0.0131808, Final residual = 3.49975e-05, No Iterations 1
GAMG:  Solving for p, Initial residual = 0.00831478, Final residual = 0.000415149, No Iterations 4
GAMG:  Solving for p, Initial residual = 0.00210194, Final residual = 0.000103593, No Iterations 16
GAMG:  Solving for p, Initial residual = 0.00164062, Final residual = 8.006e-05, No Iterations 8
time step continuity errors : sum local = 1.43959e-07, global = 1.4592e-08
GAMG:  Solving for p, Initial residual = 0.00586771, Final residual = 0.000253595, No Iterations 6
GAMG:  Solving for p, Initial residual = 0.00172099, Final residual = 8.3853e-05, No Iterations 14
GAMG:  Solving for p, Initial residual = 0.00102794, Final residual = 9.65445e-07, No Iterations 144
time step continuity errors : sum local = 1.73322e-09, global = 1.93609e-10
PIMPLE: Iteration 2
smoothSolver:  Solving for Ux, Initial residual = 0.0152979, Final residual = 8.29887e-08, No Iterations 2
smoothSolver:  Solving for Uy, Initial residual = 0.002832, Final residual = 2.62317e-08, No Iterations 3
smoothSolver:  Solving for Uz, Initial residual = 0.00405877, Final residual = 9.95183e-09, No Iterations 3
GAMG:  Solving for p, Initial residual = 0.00722806, Final residual = 0.000342606, No Iterations 6
GAMG:  Solving for p, Initial residual = 0.00269721, Final residual = 0.000125807, No Iterations 12
GAMG:  Solving for p, Initial residual = 0.00155381, Final residual = 7.45386e-05, No Iterations 16
time step continuity errors : sum local = 1.33355e-07, global = 1.40983e-08
GAMG:  Solving for p, Initial residual = 0.00514026, Final residual = 0.000201999, No Iterations 8
GAMG:  Solving for p, Initial residual = 0.00216896, Final residual = 0.000108183, No Iterations 8
GAMG:  Solving for p, Initial residual = 0.000920551, Final residual = 9.66607e-07, No Iterations 154
time step continuity errors : sum local = 1.72661e-09, global = 1.93527e-10, cumulative = 1.36366e-12
smoothSolver:  Solving for omega, Initial residual = 0.0198561, Final residual = 4.50642e-08, No Iterations 2
smoothSolver:  Solving for k, Initial residual = 0.814263, Final residual = 6.56514e-08, No Iterations 3
ExecutionTime = 143.596 s  ClockTime = 144 s

Courant Number mean: 0.0370347 max: 4.58395
deltaT = 0.329075
Time = 4.670925s

PIMPLE: Iteration 1
smoothSolver:  Solving for Ux, Initial residual = 0.0474749, Final residual = 2.34994e-05, No Iterations 1
smoothSolver:  Solving for Uy, Initial residual = 0.0084104, Final residual = 3.5016e-05, No Iterations 1
smoothSolver:  Solving for Uz, Initial residual = 0.0119184, Final residual = 3.00455e-05, No Iterations 1
GAMG:  Solving for p, Initial residual = 0.00753692, Final residual = 0.000301002, No Iterations 8
GAMG:  Solving for p, Initial residual = 0.00282292, Final residual = 0.000132809, No Iterations 14
GAMG:  Solving for p, Initial residual = 0.00158333, Final residual = 7.78407e-05, No Iterations 16
time step continuity errors : sum local = 1.38172e-07, global = 1.43925e-08
GAMG:  Solving for p, Initial residual = 0.00537486, Final residual = 0.000227969, No Iterations 8
GAMG:  Solving for p, Initial residual = 0.00210908, Final residual = 0.00010275, No Iterations 14
GAMG:  Solving for p, Initial residual = 0.00122967, Final residual = 9.77046e-07, No Iterations 152
time step continuity errors : sum local = 1.73116e-09, global = 1.93656e-10
PIMPLE: Iteration 2
smoothSolver:  Solving for Ux, Initial residual = 0.014621, Final residual = 7.8345e-08, No Iterations 2
smoothSolver:  Solving for Uy, Initial residual = 0.00278985, Final residual = 2.40369e-08, No Iterations 3
smoothSolver:  Solving for Uz, Initial residual = 0.00369247, Final residual = 8.66684e-09, No Iterations 3
GAMG:  Solving for p, Initial residual = 0.00661737, Final residual = 0.000309503, No Iterations 8
GAMG:  Solving for p, Initial residual = 0.00337558, Final residual = 0.000158745, No Iterations 10
GAMG:  Solving for p, Initial residual = 0.00158091, Final residual = 7.64589e-05, No Iterations 22
time step continuity errors : sum local = 1.35364e-07, global = 1.45951e-08
GAMG:  Solving for p, Initial residual = 0.00478337, Final residual = 0.000233407, No Iterations 8
GAMG:  Solving for p, Initial residual = 0.00248995, Final residual = 0.000121656, No Iterations 10
GAMG:  Solving for p, Initial residual = 0.00119219, Final residual = 9.9478e-07, No Iterations 158
time step continuity errors : sum local = 1.75755e-09, global = 1.97385e-10, cumulative = 1.98749e-10
smoothSolver:  Solving for omega, Initial residual = 0.0187311, Final residual = 4.24021e-08, No Iterations 2
smoothSolver:  Solving for k, Initial residual = 0.807039, Final residual = 6.38785e-08, No Iterations 3
ExecutionTime = 151.665 s  ClockTime = 152 s

Courant Number mean: 0.0375826 max: 4.617
deltaT = 0.329075
Time = 5s

PIMPLE: Iteration 1
smoothSolver:  Solving for Ux, Initial residual = 0.0453521, Final residual = 2.23744e-05, No Iterations 1
smoothSolver:  Solving for Uy, Initial residual = 0.00829067, Final residual = 3.33456e-05, No Iterations 1
smoothSolver:  Solving for Uz, Initial residual = 0.010897, Final residual = 2.612e-05, No Iterations 1
GAMG:  Solving for p, Initial residual = 0.00722412, Final residual = 0.000352988, No Iterations 8
GAMG:  Solving for p, Initial residual = 0.00326156, Final residual = 0.000160008, No Iterations 14
GAMG:  Solving for p, Initial residual = 0.00193648, Final residual = 9.50242e-05, No Iterations 16
time step continuity errors : sum local = 1.66627e-07, global = 1.74425e-08
GAMG:  Solving for p, Initial residual = 0.00518524, Final residual = 0.00021836, No Iterations 10
GAMG:  Solving for p, Initial residual = 0.0026231, Final residual = 0.000125882, No Iterations 12
GAMG:  Solving for p, Initial residual = 0.00135347, Final residual = 9.42811e-07, No Iterations 160
time step continuity errors : sum local = 1.64931e-09, global = 1.84999e-10
PIMPLE: Iteration 2
smoothSolver:  Solving for Ux, Initial residual = 0.0139497, Final residual = 7.41711e-08, No Iterations 2
smoothSolver:  Solving for Uy, Initial residual = 0.00275321, Final residual = 2.2376e-08, No Iterations 3
smoothSolver:  Solving for Uz, Initial residual = 0.0034515, Final residual = 8.15434e-09, No Iterations 3
GAMG:  Solving for p, Initial residual = 0.00650546, Final residual = 0.00027978, No Iterations 10
GAMG:  Solving for p, Initial residual = 0.00399128, Final residual = 0.000199039, No Iterations 6
GAMG:  Solving for p, Initial residual = 0.00150627, Final residual = 7.32096e-05, No Iterations 30
time step continuity errors : sum local = 1.27574e-07, global = 1.38245e-08
GAMG:  Solving for p, Initial residual = 0.00494331, Final residual = 0.000209977, No Iterations 10
GAMG:  Solving for p, Initial residual = 0.00292404, Final residual = 0.000139231, No Iterations 8
GAMG:  Solving for p, Initial residual = 0.00120478, Final residual = 9.55945e-07, No Iterations 164
time step continuity errors : sum local = 1.66099e-09, global = 1.86552e-10, cumulative = 3.85301e-10
smoothSolver:  Solving for omega, Initial residual = 0.0176747, Final residual = 3.99418e-08, No Iterations 2
smoothSolver:  Solving for k, Initial residual = 0.799823, Final residual = 6.15969e-08, No Iterations 3
ExecutionTime = 161.311 s  ClockTime = 163 s

Courant Number mean: 0.0381097 max: 4.64832
deltaT = 0.333333
Time = 5.333333s

PIMPLE: Iteration 1
smoothSolver:  Solving for Ux, Initial residual = 0.0437947, Final residual = 2.20548e-05, No Iterations 1
smoothSolver:  Solving for Uy, Initial residual = 0.00834471, Final residual = 3.28308e-05, No Iterations 1
smoothSolver:  Solving for Uz, Initial residual = 0.0104336, Final residual = 2.36602e-05, No Iterations 1
GAMG:  Solving for p, Initial residual = 0.00768561, Final residual = 0.000355794, No Iterations 10
GAMG:  Solving for p, Initial residual = 0.00447888, Final residual = 0.000223682, No Iterations 10
GAMG:  Solving for p, Initial residual = 0.00211919, Final residual = 0.000100672, No Iterations 24
time step continuity errors : sum local = 1.76811e-07, global = 1.90137e-08
GAMG:  Solving for p, Initial residual = 0.00578859, Final residual = 0.000269164, No Iterations 10
GAMG:  Solving for p, Initial residual = 0.00335009, Final residual = 0.000159639, No Iterations 12
GAMG:  Solving for p, Initial residual = 0.00175551, Final residual = 9.60696e-07, No Iterations 168
time step continuity errors : sum local = 1.68145e-09, global = 1.88798e-10
PIMPLE: Iteration 2
smoothSolver:  Solving for Ux, Initial residual = 0.0134494, Final residual = 7.37833e-08, No Iterations 2
smoothSolver:  Solving for Uy, Initial residual = 0.00278262, Final residual = 2.20749e-08, No Iterations 3
smoothSolver:  Solving for Uz, Initial residual = 0.00334285, Final residual = 8.42525e-09, No Iterations 3
GAMG:  Solving for p, Initial residual = 0.00708269, Final residual = 0.000331919, No Iterations 10
GAMG:  Solving for p, Initial residual = 0.00478101, Final residual = 0.000223261, No Iterations 8
GAMG:  Solving for p, Initial residual = 0.00198403, Final residual = 9.62453e-05, No Iterations 26
time step continuity errors : sum local = 1.67455e-07, global = 1.81132e-08
GAMG:  Solving for p, Initial residual = 0.00552118, Final residual = 0.000250562, No Iterations 10
GAMG:  Solving for p, Initial residual = 0.00354268, Final residual = 0.000169811, No Iterations 8
GAMG:  Solving for p, Initial residual = 0.00147688, Final residual = 9.85133e-07, No Iterations 170
time step continuity errors : sum local = 1.70896e-09, global = 1.91854e-10, cumulative = 5.77154e-10
smoothSolver:  Solving for omega, Initial residual = 0.0168779, Final residual = 3.93443e-08, No Iterations 2
smoothSolver:  Solving for k, Initial residual = 0.703341, Final residual = 5.67676e-08, No Iterations 3
ExecutionTime = 170.014 s  ClockTime = 171 s

Courant Number mean: 0.0391183 max: 4.73875
deltaT = 0.333333
Time = 5.666667s

PIMPLE: Iteration 1
smoothSolver:  Solving for Ux, Initial residual = 0.0416562, Final residual = 2.11329e-05, No Iterations 1
smoothSolver:  Solving for Uy, Initial residual = 0.00841907, Final residual = 3.16192e-05, No Iterations 1
smoothSolver:  Solving for Uz, Initial residual = 0.00999697, Final residual = 2.12819e-05, No Iterations 1
GAMG:  Solving for p, Initial residual = 0.00796276, Final residual = 0.00035447, No Iterations 10
GAMG:  Solving for p, Initial residual = 0.00442084, Final residual = 0.000211013, No Iterations 12
GAMG:  Solving for p, Initial residual = 0.002307, Final residual = 0.000110064, No Iterations 20
time step continuity errors : sum local = 1.89657e-07, global = 2.03739e-08
GAMG:  Solving for p, Initial residual = 0.00601124, Final residual = 0.000269972, No Iterations 10
GAMG:  Solving for p, Initial residual = 0.00335802, Final residual = 0.00016227, No Iterations 12
GAMG:  Solving for p, Initial residual = 0.00176932, Final residual = 9.84748e-07, No Iterations 168
time step continuity errors : sum local = 1.69193e-09, global = 1.89828e-10
PIMPLE: Iteration 2
smoothSolver:  Solving for Ux, Initial residual = 0.0127923, Final residual = 7.04537e-08, No Iterations 2
smoothSolver:  Solving for Uy, Initial residual = 0.00279463, Final residual = 2.09325e-08, No Iterations 3
smoothSolver:  Solving for Uz, Initial residual = 0.00322447, Final residual = 8.4063e-09, No Iterations 3
GAMG:  Solving for p, Initial residual = 0.00736907, Final residual = 0.000333004, No Iterations 10
GAMG:  Solving for p, Initial residual = 0.00478345, Final residual = 0.000225144, No Iterations 8
GAMG:  Solving for p, Initial residual = 0.00197719, Final residual = 9.77182e-05, No Iterations 26
time step continuity errors : sum local = 1.66878e-07, global = 1.80548e-08
GAMG:  Solving for p, Initial residual = 0.00578805, Final residual = 0.000251807, No Iterations 10
GAMG:  Solving for p, Initial residual = 0.00355243, Final residual = 0.000171395, No Iterations 8
GAMG:  Solving for p, Initial residual = 0.0014736, Final residual = 9.47214e-07, No Iterations 172
time step continuity errors : sum local = 1.61277e-09, global = 1.80925e-10, cumulative = 7.58079e-10
smoothSolver:  Solving for omega, Initial residual = 0.0159336, Final residual = 3.70735e-08, No Iterations 2
smoothSolver:  Solving for k, Initial residual = 0.545334, Final residual = 4.36905e-08, No Iterations 3
ExecutionTime = 178.743 s  ClockTime = 180 s

Courant Number mean: 0.039612 max: 4.7672
deltaT = 0.333333
Time = 6s

PIMPLE: Iteration 1
smoothSolver:  Solving for Ux, Initial residual = 0.0396519, Final residual = 2.02053e-05, No Iterations 1
smoothSolver:  Solving for Uy, Initial residual = 0.00846528, Final residual = 3.04445e-05, No Iterations 1
smoothSolver:  Solving for Uz, Initial residual = 0.00970357, Final residual = 2.08077e-05, No Iterations 1
GAMG:  Solving for p, Initial residual = 0.00819808, Final residual = 0.00037713, No Iterations 10
GAMG:  Solving for p, Initial residual = 0.00478345, Final residual = 0.000229229, No Iterations 12
GAMG:  Solving for p, Initial residual = 0.00250375, Final residual = 0.000120076, No Iterations 20
time step continuity errors : sum local = 2.02367e-07, global = 2.1751e-08
GAMG:  Solving for p, Initial residual = 0.0062422, Final residual = 0.000287605, No Iterations 10
GAMG:  Solving for p, Initial residual = 0.00365316, Final residual = 0.000176407, No Iterations 12
GAMG:  Solving for p, Initial residual = 0.00192102, Final residual = 9.60237e-07, No Iterations 172
time step continuity errors : sum local = 1.6132e-09, global = 1.80863e-10
PIMPLE: Iteration 2
smoothSolver:  Solving for Ux, Initial residual = 0.0121678, Final residual = 6.68495e-08, No Iterations 2
smoothSolver:  Solving for Uy, Initial residual = 0.00280465, Final residual = 1.95808e-08, No Iterations 3
smoothSolver:  Solving for Uz, Initial residual = 0.0031449, Final residual = 8.03106e-09, No Iterations 3
GAMG:  Solving for p, Initial residual = 0.00764232, Final residual = 0.00035227, No Iterations 10
GAMG:  Solving for p, Initial residual = 0.00508447, Final residual = 0.000240312, No Iterations 8
GAMG:  Solving for p, Initial residual = 0.00209851, Final residual = 9.8564e-05, No Iterations 28
time step continuity errors : sum local = 1.64662e-07, global = 1.78654e-08
GAMG:  Solving for p, Initial residual = 0.00608084, Final residual = 0.000265518, No Iterations 10
GAMG:  Solving for p, Initial residual = 0.00376991, Final residual = 0.000182166, No Iterations 8
GAMG:  Solving for p, Initial residual = 0.00155784, Final residual = 9.56986e-07, No Iterations 174
time step continuity errors : sum local = 1.59355e-09, global = 1.78617e-10, cumulative = 9.36696e-10
smoothSolver:  Solving for omega, Initial residual = 0.0150452, Final residual = 3.4758e-08, No Iterations 2
smoothSolver:  Solving for k, Initial residual = 0.437378, Final residual = 3.45105e-08, No Iterations 3
ExecutionTime = 187.6 s  ClockTime = 189 s

Courant Number mean: 0.0400839 max: 4.79351
deltaT = 0.333333
Time = 6.333333s

PIMPLE: Iteration 1
smoothSolver:  Solving for Ux, Initial residual = 0.0377263, Final residual = 1.9237e-05, No Iterations 1
smoothSolver:  Solving for Uy, Initial residual = 0.00850482, Final residual = 2.9404e-05, No Iterations 1
smoothSolver:  Solving for Uz, Initial residual = 0.00950646, Final residual = 2.13997e-05, No Iterations 1
GAMG:  Solving for p, Initial residual = 0.00859486, Final residual = 0.000400276, No Iterations 10
GAMG:  Solving for p, Initial residual = 0.00516136, Final residual = 0.000245258, No Iterations 12
GAMG:  Solving for p, Initial residual = 0.00269859, Final residual = 0.000129038, No Iterations 20
time step continuity errors : sum local = 2.1244e-07, global = 2.28417e-08
GAMG:  Solving for p, Initial residual = 0.00657417, Final residual = 0.000305573, No Iterations 10
GAMG:  Solving for p, Initial residual = 0.00394786, Final residual = 0.000188832, No Iterations 12
GAMG:  Solving for p, Initial residual = 0.00206984, Final residual = 9.77186e-07, No Iterations 174
time step continuity errors : sum local = 1.60333e-09, global = 1.79593e-10
PIMPLE: Iteration 2
smoothSolver:  Solving for Ux, Initial residual = 0.0115629, Final residual = 6.33747e-08, No Iterations 2
smoothSolver:  Solving for Uy, Initial residual = 0.00281752, Final residual = 1.83094e-08, No Iterations 3
smoothSolver:  Solving for Uz, Initial residual = 0.00311271, Final residual = 7.918e-09, No Iterations 3
GAMG:  Solving for p, Initial residual = 0.00805701, Final residual = 0.000371066, No Iterations 10
GAMG:  Solving for p, Initial residual = 0.00538372, Final residual = 0.000254622, No Iterations 8
GAMG:  Solving for p, Initial residual = 0.00222979, Final residual = 0.000104766, No Iterations 28
time step continuity errors : sum local = 1.70972e-07, global = 1.85479e-08
GAMG:  Solving for p, Initial residual = 0.00642935, Final residual = 0.000280092, No Iterations 10
GAMG:  Solving for p, Initial residual = 0.00399398, Final residual = 0.000193178, No Iterations 8
GAMG:  Solving for p, Initial residual = 0.00165589, Final residual = 9.60228e-07, No Iterations 176
time step continuity errors : sum local = 1.56162e-09, global = 1.74989e-10, cumulative = 1.11168e-09
smoothSolver:  Solving for omega, Initial residual = 0.0142128, Final residual = 3.26211e-08, No Iterations 2
smoothSolver:  Solving for k, Initial residual = 0.360382, Final residual = 2.8587e-08, No Iterations 3
ExecutionTime = 196.536 s  ClockTime = 198 s

Courant Number mean: 0.0405346 max: 4.81739
deltaT = 0.333333
Time = 6.666667s

PIMPLE: Iteration 1
smoothSolver:  Solving for Ux, Initial residual = 0.0358692, Final residual = 1.83035e-05, No Iterations 1
smoothSolver:  Solving for Uy, Initial residual = 0.00855672, Final residual = 2.84361e-05, No Iterations 1
smoothSolver:  Solving for Uz, Initial residual = 0.0094477, Final residual = 2.2279e-05, No Iterations 1
GAMG:  Solving for p, Initial residual = 0.00901552, Final residual = 0.000420773, No Iterations 10
GAMG:  Solving for p, Initial residual = 0.00547191, Final residual = 0.000258903, No Iterations 12
GAMG:  Solving for p, Initial residual = 0.00287383, Final residual = 0.000136821, No Iterations 20
time step continuity errors : sum local = 2.19769e-07, global = 2.36525e-08
GAMG:  Solving for p, Initial residual = 0.00691028, Final residual = 0.000321783, No Iterations 10
GAMG:  Solving for p, Initial residual = 0.00418506, Final residual = 0.00019951, No Iterations 12
GAMG:  Solving for p, Initial residual = 0.00220361, Final residual = 9.78838e-07, No Iterations 176
time step continuity errors : sum local = 1.56664e-09, global = 1.75452e-10
PIMPLE: Iteration 2
smoothSolver:  Solving for Ux, Initial residual = 0.0109786, Final residual = 5.99955e-08, No Iterations 2
smoothSolver:  Solving for Uy, Initial residual = 0.0028291, Final residual = 1.73163e-08, No Iterations 3
smoothSolver:  Solving for Uz, Initial residual = 0.00312726, Final residual = 7.77352e-09, No Iterations 3
GAMG:  Solving for p, Initial residual = 0.00849579, Final residual = 0.000387928, No Iterations 10
GAMG:  Solving for p, Initial residual = 0.00563984, Final residual = 0.00026736, No Iterations 8
GAMG:  Solving for p, Initial residual = 0.00235359, Final residual = 0.00011735, No Iterations 26
time step continuity errors : sum local = 1.86748e-07, global = 2.02057e-08
GAMG:  Solving for p, Initial residual = 0.00675276, Final residual = 0.000294628, No Iterations 10
GAMG:  Solving for p, Initial residual = 0.00420397, Final residual = 0.000204001, No Iterations 8
GAMG:  Solving for p, Initial residual = 0.00175704, Final residual = 9.58251e-07, No Iterations 178
time step continuity errors : sum local = 1.5195e-09, global = 1.70263e-10, cumulative = 1.28195e-09
smoothSolver:  Solving for omega, Initial residual = 0.0134342, Final residual = 3.05351e-08, No Iterations 2
smoothSolver:  Solving for k, Initial residual = 0.30318, Final residual = 2.33307e-08, No Iterations 3
ExecutionTime = 205.497 s  ClockTime = 207 s

Courant Number mean: 0.0409652 max: 4.83894
deltaT = 0.333333
Time = 7s

PIMPLE: Iteration 1
smoothSolver:  Solving for Ux, Initial residual = 0.034069, Final residual = 1.7401e-05, No Iterations 1
smoothSolver:  Solving for Uy, Initial residual = 0.00859653, Final residual = 2.75491e-05, No Iterations 1
smoothSolver:  Solving for Uz, Initial residual = 0.00948876, Final residual = 2.30655e-05, No Iterations 1
GAMG:  Solving for p, Initial residual = 0.00951723, Final residual = 0.000441068, No Iterations 10
GAMG:  Solving for p, Initial residual = 0.00578263, Final residual = 0.000272092, No Iterations 12
GAMG:  Solving for p, Initial residual = 0.00304847, Final residual = 0.000144356, No Iterations 20
time step continuity errors : sum local = 2.25852e-07, global = 2.4333e-08
GAMG:  Solving for p, Initial residual = 0.00730443, Final residual = 0.000337847, No Iterations 10
GAMG:  Solving for p, Initial residual = 0.00442093, Final residual = 0.000209827, No Iterations 12
GAMG:  Solving for p, Initial residual = 0.00233647, Final residual = 9.7508e-07, No Iterations 178
time step continuity errors : sum local = 1.51982e-09, global = 1.7021e-10
PIMPLE: Iteration 2
smoothSolver:  Solving for Ux, Initial residual = 0.01041, Final residual = 5.67312e-08, No Iterations 2
smoothSolver:  Solving for Uy, Initial residual = 0.00283563, Final residual = 1.65929e-08, No Iterations 3
smoothSolver:  Solving for Uz, Initial residual = 0.00317691, Final residual = 7.62795e-09, No Iterations 3
GAMG:  Solving for p, Initial residual = 0.00898415, Final residual = 0.000404849, No Iterations 10
GAMG:  Solving for p, Initial residual = 0.00590055, Final residual = 0.000279776, No Iterations 8
GAMG:  Solving for p, Initial residual = 0.00247998, Final residual = 0.000123047, No Iterations 26
time step continuity errors : sum local = 1.90637e-07, global = 2.06279e-08
GAMG:  Solving for p, Initial residual = 0.00716257, Final residual = 0.000307941, No Iterations 10
GAMG:  Solving for p, Initial residual = 0.00439772, Final residual = 0.000213645, No Iterations 8
GAMG:  Solving for p, Initial residual = 0.00185092, Final residual = 9.47484e-07, No Iterations 180
time step continuity errors : sum local = 1.46246e-09, global = 1.63857e-10, cumulative = 1.4458e-09
smoothSolver:  Solving for omega, Initial residual = 0.012707, Final residual = 2.86245e-08, No Iterations 2
smoothSolver:  Solving for k, Initial residual = 0.259264, Final residual = 1.97281e-08, No Iterations 3
ExecutionTime = 214.525 s  ClockTime = 216 s

Courant Number mean: 0.0413788 max: 4.85826
deltaT = 0.333333
Time = 7.333333s

PIMPLE: Iteration 1
smoothSolver:  Solving for Ux, Initial residual = 0.0323361, Final residual = 1.65286e-05, No Iterations 1
smoothSolver:  Solving for Uy, Initial residual = 0.00861436, Final residual = 2.67087e-05, No Iterations 1
smoothSolver:  Solving for Uz, Initial residual = 0.00964988, Final residual = 2.36268e-05, No Iterations 1
GAMG:  Solving for p, Initial residual = 0.00987549, Final residual = 0.000460796, No Iterations 10
GAMG:  Solving for p, Initial residual = 0.00611673, Final residual = 0.000303916, No Iterations 10
GAMG:  Solving for p, Initial residual = 0.0029551, Final residual = 0.000140602, No Iterations 24
time step continuity errors : sum local = 2.14071e-07, global = 2.30901e-08
GAMG:  Solving for p, Initial residual = 0.00776969, Final residual = 0.000351565, No Iterations 10
GAMG:  Solving for p, Initial residual = 0.00463671, Final residual = 0.000218891, No Iterations 12
GAMG:  Solving for p, Initial residual = 0.00245322, Final residual = 9.61853e-07, No Iterations 180
time step continuity errors : sum local = 1.45754e-09, global = 1.63234e-10
PIMPLE: Iteration 2
smoothSolver:  Solving for Ux, Initial residual = 0.00986585, Final residual = 5.3614e-08, No Iterations 2
smoothSolver:  Solving for Uy, Initial residual = 0.00283228, Final residual = 1.59832e-08, No Iterations 3
smoothSolver:  Solving for Uz, Initial residual = 0.00323194, Final residual = 7.37896e-09, No Iterations 3
GAMG:  Solving for p, Initial residual = 0.00937178, Final residual = 0.000421601, No Iterations 10
GAMG:  Solving for p, Initial residual = 0.00618721, Final residual = 0.000292074, No Iterations 8
GAMG:  Solving for p, Initial residual = 0.0026087, Final residual = 0.000128688, No Iterations 26
time step continuity errors : sum local = 1.93793e-07, global = 2.09715e-08
GAMG:  Solving for p, Initial residual = 0.00752735, Final residual = 0.00032105, No Iterations 10
GAMG:  Solving for p, Initial residual = 0.00460936, Final residual = 0.000223165, No Iterations 8
GAMG:  Solving for p, Initial residual = 0.00194621, Final residual = 9.915e-07, No Iterations 180
time step continuity errors : sum local = 1.48731e-09, global = 1.66633e-10, cumulative = 1.61244e-09
smoothSolver:  Solving for omega, Initial residual = 0.012029, Final residual = 2.68703e-08, No Iterations 2
smoothSolver:  Solving for k, Initial residual = 0.224465, Final residual = 1.69394e-08, No Iterations 3
ExecutionTime = 223.624 s  ClockTime = 225 s

Courant Number mean: 0.041781 max: 4.87558
deltaT = 0.333333
Time = 7.666667s

PIMPLE: Iteration 1
smoothSolver:  Solving for Ux, Initial residual = 0.0306596, Final residual = 1.5686e-05, No Iterations 1
smoothSolver:  Solving for Uy, Initial residual = 0.00859575, Final residual = 2.59253e-05, No Iterations 1
smoothSolver:  Solving for Uz, Initial residual = 0.00979433, Final residual = 2.40195e-05, No Iterations 1
GAMG:  Solving for p, Initial residual = 0.0102292, Final residual = 0.000480583, No Iterations 10
GAMG:  Solving for p, Initial residual = 0.0064716, Final residual = 0.00031799, No Iterations 10
GAMG:  Solving for p, Initial residual = 0.00312053, Final residual = 0.000147525, No Iterations 24
time step continuity errors : sum local = 2.18069e-07, global = 2.35367e-08
GAMG:  Solving for p, Initial residual = 0.00811384, Final residual = 0.000367072, No Iterations 10
GAMG:  Solving for p, Initial residual = 0.00490091, Final residual = 0.00024392, No Iterations 10
GAMG:  Solving for p, Initial residual = 0.00236738, Final residual = 9.98664e-07, No Iterations 182
time step continuity errors : sum local = 1.46976e-09, global = 1.64597e-10
PIMPLE: Iteration 2
smoothSolver:  Solving for Ux, Initial residual = 0.00934565, Final residual = 5.07031e-08, No Iterations 2
smoothSolver:  Solving for Uy, Initial residual = 0.00281771, Final residual = 1.54503e-08, No Iterations 3
smoothSolver:  Solving for Uz, Initial residual = 0.00326875, Final residual = 7.12193e-09, No Iterations 3
GAMG:  Solving for p, Initial residual = 0.00985719, Final residual = 0.000438764, No Iterations 10
GAMG:  Solving for p, Initial residual = 0.00648993, Final residual = 0.000305004, No Iterations 8
GAMG:  Solving for p, Initial residual = 0.00273738, Final residual = 0.000134629, No Iterations 26
time step continuity errors : sum local = 1.96734e-07, global = 2.12956e-08
GAMG:  Solving for p, Initial residual = 0.0079501, Final residual = 0.0003345, No Iterations 10
GAMG:  Solving for p, Initial residual = 0.00483407, Final residual = 0.000233159, No Iterations 8
GAMG:  Solving for p, Initial residual = 0.00204177, Final residual = 9.7799e-07, No Iterations 182
time step continuity errors : sum local = 1.42334e-09, global = 1.59488e-10, cumulative = 1.77193e-09
smoothSolver:  Solving for omega, Initial residual = 0.0113968, Final residual = 2.5284e-08, No Iterations 2
smoothSolver:  Solving for k, Initial residual = 0.196027, Final residual = 1.45671e-08, No Iterations 3
ExecutionTime = 232.752 s  ClockTime = 234 s

Courant Number mean: 0.0421701 max: 4.89128
deltaT = 0.333333
Time = 8s

PIMPLE: Iteration 1
smoothSolver:  Solving for Ux, Initial residual = 0.0290511, Final residual = 1.4883e-05, No Iterations 1
smoothSolver:  Solving for Uy, Initial residual = 0.0085385, Final residual = 2.51746e-05, No Iterations 1
smoothSolver:  Solving for Uz, Initial residual = 0.00988247, Final residual = 2.41885e-05, No Iterations 1
GAMG:  Solving for p, Initial residual = 0.0106289, Final residual = 0.000502576, No Iterations 10
GAMG:  Solving for p, Initial residual = 0.00684196, Final residual = 0.000333859, No Iterations 10
GAMG:  Solving for p, Initial residual = 0.00329543, Final residual = 0.000155279, No Iterations 24
time step continuity errors : sum local = 2.22495e-07, global = 2.40301e-08
GAMG:  Solving for p, Initial residual = 0.00847407, Final residual = 0.000384347, No Iterations 10
GAMG:  Solving for p, Initial residual = 0.00517886, Final residual = 0.000256212, No Iterations 10
GAMG:  Solving for p, Initial residual = 0.00249886, Final residual = 9.91611e-07, No Iterations 184
time step continuity errors : sum local = 1.41434e-09, global = 1.58417e-10
PIMPLE: Iteration 2
smoothSolver:  Solving for Ux, Initial residual = 0.00884749, Final residual = 4.7913e-08, No Iterations 2
smoothSolver:  Solving for Uy, Initial residual = 0.0027896, Final residual = 1.4944e-08, No Iterations 3
smoothSolver:  Solving for Uz, Initial residual = 0.00328488, Final residual = 6.82122e-09, No Iterations 3
GAMG:  Solving for p, Initial residual = 0.0103033, Final residual = 0.000465151, No Iterations 10
GAMG:  Solving for p, Initial residual = 0.00690472, Final residual = 0.000324553, No Iterations 8
GAMG:  Solving for p, Initial residual = 0.00291827, Final residual = 0.000143476, No Iterations 26
time step continuity errors : sum local = 2.03035e-07, global = 2.19805e-08
GAMG:  Solving for p, Initial residual = 0.00834707, Final residual = 0.000355062, No Iterations 10
GAMG:  Solving for p, Initial residual = 0.00514536, Final residual = 0.000248239, No Iterations 8
GAMG:  Solving for p, Initial residual = 0.00217698, Final residual = 9.82463e-07, No Iterations 184
time step continuity errors : sum local = 1.38428e-09, global = 1.55133e-10, cumulative = 1.92706e-09
smoothSolver:  Solving for omega, Initial residual = 0.0108078, Final residual = 2.37801e-08, No Iterations 2
smoothSolver:  Solving for k, Initial residual = 0.172774, Final residual = 1.28113e-08, No Iterations 3
ExecutionTime = 241.95 s  ClockTime = 243 s

Courant Number mean: 0.0425428 max: 4.90558
deltaT = 0.333333
Time = 8.333333s

PIMPLE: Iteration 1
smoothSolver:  Solving for Ux, Initial residual = 0.0274988, Final residual = 1.41064e-05, No Iterations 1
smoothSolver:  Solving for Uy, Initial residual = 0.00843382, Final residual = 2.44419e-05, No Iterations 1
smoothSolver:  Solving for Uz, Initial residual = 0.00992655, Final residual = 2.40889e-05, No Iterations 1
GAMG:  Solving for p, Initial residual = 0.0112262, Final residual = 0.000534015, No Iterations 10
GAMG:  Solving for p, Initial residual = 0.00731431, Final residual = 0.000355749, No Iterations 10
GAMG:  Solving for p, Initial residual = 0.0035266, Final residual = 0.000165885, No Iterations 24
time step continuity errors : sum local = 2.29884e-07, global = 2.48413e-08
GAMG:  Solving for p, Initial residual = 0.00897604, Final residual = 0.000408971, No Iterations 10
GAMG:  Solving for p, Initial residual = 0.00553605, Final residual = 0.000273187, No Iterations 10
GAMG:  Solving for p, Initial residual = 0.00267355, Final residual = 9.99519e-07, No Iterations 186
time step continuity errors : sum local = 1.37837e-09, global = 1.54414e-10
PIMPLE: Iteration 2
smoothSolver:  Solving for Ux, Initial residual = 0.00836498, Final residual = 4.52546e-08, No Iterations 2
smoothSolver:  Solving for Uy, Initial residual = 0.00274765, Final residual = 1.43752e-08, No Iterations 3
smoothSolver:  Solving for Uz, Initial residual = 0.00328959, Final residual = 6.54978e-09, No Iterations 3
GAMG:  Solving for p, Initial residual = 0.0109091, Final residual = 0.000491682, No Iterations 10
GAMG:  Solving for p, Initial residual = 0.00730571, Final residual = 0.000343822, No Iterations 8
GAMG:  Solving for p, Initial residual = 0.00309441, Final residual = 0.000152186, No Iterations 26
time step continuity errors : sum local = 2.0814e-07, global = 2.25346e-08
GAMG:  Solving for p, Initial residual = 0.00884897, Final residual = 0.000375766, No Iterations 10
GAMG:  Solving for p, Initial residual = 0.00544808, Final residual = 0.000263131, No Iterations 8
GAMG:  Solving for p, Initial residual = 0.00230903, Final residual = 9.825e-07, No Iterations 186
[...]
GAMG:  Solving for p, Initial residual = 0.000601832, Final residual = 2.87784e-05, No Iterations 19
time step continuity errors : sum local = 3.33737e-09, global = 3.67875e-10
GAMG:  Solving for p, Initial residual = 0.00207575, Final residual = 0.00010347, No Iterations 5
GAMG:  Solving for p, Initial residual = 0.00119148, Final residual = 5.17109e-05, No Iterations 7
GAMG:  Solving for p, Initial residual = 0.000452811, Final residual = 9.63323e-07, No Iterations 114
time step continuity errors : sum local = 1.11719e-10, global = 1.2357e-11
PIMPLE: Iteration 2
smoothSolver:  Solving for Ux, Initial residual = 6.50061e-05, Final residual = 1.69595e-09, No Iterations 2
smoothSolver:  Solving for Uy, Initial residual = 0.00038054, Final residual = 1.63248e-08, No Iterations 2
smoothSolver:  Solving for Uz, Initial residual = 0.00119905, Final residual = 3.26862e-08, No Iterations 2
GAMG:  Solving for p, Initial residual = 0.00289172, Final residual = 0.000131758, No Iterations 5
GAMG:  Solving for p, Initial residual = 0.00150897, Final residual = 6.76577e-05, No Iterations 5
GAMG:  Solving for p, Initial residual = 0.000472927, Final residual = 2.28412e-05, No Iterations 21
time step continuity errors : sum local = 2.64531e-09, global = -3.30933e-10
GAMG:  Solving for p, Initial residual = 0.00204564, Final residual = 9.14229e-05, No Iterations 5
GAMG:  Solving for p, Initial residual = 0.00106144, Final residual = 4.99379e-05, No Iterations 5
GAMG:  Solving for p, Initial residual = 0.000338654, Final residual = 9.79479e-07, No Iterations 120
time step continuity errors : sum local = 1.13431e-10, global = -1.29965e-11, cumulative = 1.03922e-09
smoothSolver:  Solving for omega, Initial residual = 0.000613541, Final residual = 1.65819e-09, No Iterations 2
smoothSolver:  Solving for k, Initial residual = 0.000319423, Final residual = 7.81572e-09, No Iterations 2
bounding k, min: -0.00218555 max: 4.92755 average: 0.712686
ExecutionTime = 3255.63 s  ClockTime = 3287 s

Courant Number mean: 0.0678006 max: 4.61472
deltaT = 0.5
Time = 197s

PIMPLE: Iteration 1
smoothSolver:  Solving for Ux, Initial residual = 0.000208031, Final residual = 3.39786e-07, No Iterations 1
smoothSolver:  Solving for Uy, Initial residual = 0.00121094, Final residual = 2.23669e-06, No Iterations 1
smoothSolver:  Solving for Uz, Initial residual = 0.00385915, Final residual = 5.15654e-06, No Iterations 1
GAMG:  Solving for p, Initial residual = 0.00291541, Final residual = 0.000144776, No Iterations 5
GAMG:  Solving for p, Initial residual = 0.00173935, Final residual = 8.52161e-05, No Iterations 5
GAMG:  Solving for p, Initial residual = 0.000598566, Final residual = 2.88252e-05, No Iterations 19
time step continuity errors : sum local = 3.33956e-09, global = 3.67889e-10
GAMG:  Solving for p, Initial residual = 0.00207023, Final residual = 0.000103253, No Iterations 5
GAMG:  Solving for p, Initial residual = 0.00118417, Final residual = 5.18035e-05, No Iterations 7
GAMG:  Solving for p, Initial residual = 0.00045082, Final residual = 9.60123e-07, No Iterations 114
time step continuity errors : sum local = 1.1124e-10, global = 1.23003e-11
PIMPLE: Iteration 2
smoothSolver:  Solving for Ux, Initial residual = 6.48558e-05, Final residual = 1.6889e-09, No Iterations 2
smoothSolver:  Solving for Uy, Initial residual = 0.000380068, Final residual = 1.60323e-08, No Iterations 2
smoothSolver:  Solving for Uz, Initial residual = 0.00119606, Final residual = 3.27403e-08, No Iterations 2
GAMG:  Solving for p, Initial residual = 0.00288104, Final residual = 0.000130584, No Iterations 5
GAMG:  Solving for p, Initial residual = 0.0015043, Final residual = 6.70379e-05, No Iterations 5
GAMG:  Solving for p, Initial residual = 0.000470518, Final residual = 2.27786e-05, No Iterations 21
time step continuity errors : sum local = 2.63555e-09, global = -3.29121e-10
GAMG:  Solving for p, Initial residual = 0.00203802, Final residual = 9.09648e-05, No Iterations 5
GAMG:  Solving for p, Initial residual = 0.00105872, Final residual = 4.95654e-05, No Iterations 5
GAMG:  Solving for p, Initial residual = 0.000337274, Final residual = 9.7644e-07, No Iterations 120
time step continuity errors : sum local = 1.12972e-10, global = -1.29414e-11, cumulative = 1.02628e-09
smoothSolver:  Solving for omega, Initial residual = 0.000613735, Final residual = 1.66006e-09, No Iterations 2
smoothSolver:  Solving for k, Initial residual = 0.000318575, Final residual = 7.77741e-09, No Iterations 2
ExecutionTime = 3261.78 s  ClockTime = 3293 s

Courant Number mean: 0.0677953 max: 4.6113
deltaT = 0.5
Time = 197.5s

PIMPLE: Iteration 1
smoothSolver:  Solving for Ux, Initial residual = 0.000207563, Final residual = 3.38452e-07, No Iterations 1
smoothSolver:  Solving for Uy, Initial residual = 0.00120954, Final residual = 2.22553e-06, No Iterations 1
smoothSolver:  Solving for Uz, Initial residual = 0.00385007, Final residual = 5.14039e-06, No Iterations 1
GAMG:  Solving for p, Initial residual = 0.00291861, Final residual = 0.00014418, No Iterations 5
GAMG:  Solving for p, Initial residual = 0.00174321, Final residual = 8.47728e-05, No Iterations 5
GAMG:  Solving for p, Initial residual = 0.000599221, Final residual = 2.86494e-05, No Iterations 19
time step continuity errors : sum local = 3.31599e-09, global = 3.64633e-10
GAMG:  Solving for p, Initial residual = 0.00207244, Final residual = 0.000103136, No Iterations 5
GAMG:  Solving for p, Initial residual = 0.00118509, Final residual = 5.15897e-05, No Iterations 7
GAMG:  Solving for p, Initial residual = 0.000450575, Final residual = 9.55636e-07, No Iterations 114
time step continuity errors : sum local = 1.10614e-10, global = 1.22288e-11
PIMPLE: Iteration 2
smoothSolver:  Solving for Ux, Initial residual = 6.47073e-05, Final residual = 1.68039e-09, No Iterations 2
smoothSolver:  Solving for Uy, Initial residual = 0.000379569, Final residual = 1.59054e-08, No Iterations 2
smoothSolver:  Solving for Uz, Initial residual = 0.00119339, Final residual = 3.24582e-08, No Iterations 2
GAMG:  Solving for p, Initial residual = 0.00286871, Final residual = 0.00012871, No Iterations 5
GAMG:  Solving for p, Initial residual = 0.00149239, Final residual = 6.66203e-05, No Iterations 5
GAMG:  Solving for p, Initial residual = 0.000468044, Final residual = 2.28184e-05, No Iterations 21
time step continuity errors : sum local = 2.63752e-09, global = -3.29484e-10
GAMG:  Solving for p, Initial residual = 0.00202922, Final residual = 9.07639e-05, No Iterations 5
GAMG:  Solving for p, Initial residual = 0.00105273, Final residual = 4.93269e-05, No Iterations 5
GAMG:  Solving for p, Initial residual = 0.000336054, Final residual = 9.74364e-07, No Iterations 120
time step continuity errors : sum local = 1.12619e-10, global = -1.28969e-11, cumulative = 1.01339e-09
smoothSolver:  Solving for omega, Initial residual = 0.00061394, Final residual = 1.66037e-09, No Iterations 2
smoothSolver:  Solving for k, Initial residual = 0.000317725, Final residual = 7.74215e-09, No Iterations 2
ExecutionTime = 3267.9 s  ClockTime = 3299 s

Courant Number mean: 0.06779 max: 4.60792
deltaT = 0.5
Time = 198s

PIMPLE: Iteration 1
smoothSolver:  Solving for Ux, Initial residual = 0.000207102, Final residual = 3.37128e-07, No Iterations 1
smoothSolver:  Solving for Uy, Initial residual = 0.00120815, Final residual = 2.21374e-06, No Iterations 1
smoothSolver:  Solving for Uz, Initial residual = 0.00384215, Final residual = 5.12444e-06, No Iterations 1
GAMG:  Solving for p, Initial residual = 0.00290641, Final residual = 0.000143959, No Iterations 5
GAMG:  Solving for p, Initial residual = 0.00174677, Final residual = 8.45215e-05, No Iterations 5
GAMG:  Solving for p, Initial residual = 0.000600065, Final residual = 2.84715e-05, No Iterations 19
time step continuity errors : sum local = 3.29234e-09, global = 3.61293e-10
GAMG:  Solving for p, Initial residual = 0.00206341, Final residual = 0.000103167, No Iterations 5
GAMG:  Solving for p, Initial residual = 0.0011864, Final residual = 5.14105e-05, No Iterations 7
GAMG:  Solving for p, Initial residual = 0.000450814, Final residual = 9.50228e-07, No Iterations 114
time step continuity errors : sum local = 1.09885e-10, global = 1.21467e-11
PIMPLE: Iteration 2
smoothSolver:  Solving for Ux, Initial residual = 6.45601e-05, Final residual = 1.67162e-09, No Iterations 2
smoothSolver:  Solving for Uy, Initial residual = 0.000379071, Final residual = 1.6182e-08, No Iterations 2
smoothSolver:  Solving for Uz, Initial residual = 0.00119117, Final residual = 3.22717e-08, No Iterations 2
GAMG:  Solving for p, Initial residual = 0.00284867, Final residual = 0.000127425, No Iterations 5
GAMG:  Solving for p, Initial residual = 0.00148625, Final residual = 6.61817e-05, No Iterations 5
GAMG:  Solving for p, Initial residual = 0.000466472, Final residual = 2.27906e-05, No Iterations 21
time step continuity errors : sum local = 2.63186e-09, global = -3.28744e-10
GAMG:  Solving for p, Initial residual = 0.00201502, Final residual = 9.01868e-05, No Iterations 5
GAMG:  Solving for p, Initial residual = 0.00104886, Final residual = 4.904e-05, No Iterations 5
GAMG:  Solving for p, Initial residual = 0.000335206, Final residual = 9.7296e-07, No Iterations 120
time step continuity errors : sum local = 1.12352e-10, global = -1.28639e-11, cumulative = 1.00052e-09
smoothSolver:  Solving for omega, Initial residual = 0.000614159, Final residual = 1.65992e-09, No Iterations 2
smoothSolver:  Solving for k, Initial residual = 0.000316881, Final residual = 7.70668e-09, No Iterations 2
bounding k, min: -0.00260934 max: 4.91999 average: 0.711561
ExecutionTime = 3274.05 s  ClockTime = 3305 s

Courant Number mean: 0.0677848 max: 4.60457
deltaT = 0.5
Time = 198.5s

PIMPLE: Iteration 1
smoothSolver:  Solving for Ux, Initial residual = 0.000206644, Final residual = 3.35811e-07, No Iterations 1
smoothSolver:  Solving for Uy, Initial residual = 0.00120675, Final residual = 2.2003e-06, No Iterations 1
smoothSolver:  Solving for Uz, Initial residual = 0.00383542, Final residual = 5.10664e-06, No Iterations 1
GAMG:  Solving for p, Initial residual = 0.0028841, Final residual = 0.000142857, No Iterations 5
GAMG:  Solving for p, Initial residual = 0.00172413, Final residual = 8.41475e-05, No Iterations 5
GAMG:  Solving for p, Initial residual = 0.000594008, Final residual = 2.84378e-05, No Iterations 19
time step continuity errors : sum local = 3.28528e-09, global = 3.60212e-10
GAMG:  Solving for p, Initial residual = 0.00204848, Final residual = 0.00010242, No Iterations 5
GAMG:  Solving for p, Initial residual = 0.00116802, Final residual = 5.14321e-05, No Iterations 7
GAMG:  Solving for p, Initial residual = 0.000446449, Final residual = 9.45819e-07, No Iterations 114
time step continuity errors : sum local = 1.0927e-10, global = 1.20721e-11
PIMPLE: Iteration 2
smoothSolver:  Solving for Ux, Initial residual = 6.44147e-05, Final residual = 1.66325e-09, No Iterations 2
smoothSolver:  Solving for Uy, Initial residual = 0.000378576, Final residual = 1.56238e-08, No Iterations 2
smoothSolver:  Solving for Uz, Initial residual = 0.00118899, Final residual = 3.20019e-08, No Iterations 2
GAMG:  Solving for p, Initial residual = 0.00284257, Final residual = 0.000126446, No Iterations 5
GAMG:  Solving for p, Initial residual = 0.00147683, Final residual = 6.5937e-05, No Iterations 5
GAMG:  Solving for p, Initial residual = 0.000464762, Final residual = 2.27876e-05, No Iterations 21
time step continuity errors : sum local = 2.62897e-09, global = -3.28491e-10
GAMG:  Solving for p, Initial residual = 0.0020113, Final residual = 8.97463e-05, No Iterations 5
GAMG:  Solving for p, Initial residual = 0.00104262, Final residual = 4.88809e-05, No Iterations 5
GAMG:  Solving for p, Initial residual = 0.000334078, Final residual = 9.72145e-07, No Iterations 120
time step continuity errors : sum local = 1.12149e-10, global = -1.28382e-11, cumulative = 9.87684e-10
smoothSolver:  Solving for omega, Initial residual = 0.00061436, Final residual = 1.65812e-09, No Iterations 2
smoothSolver:  Solving for k, Initial residual = 0.000316056, Final residual = 7.66936e-09, No Iterations 2
ExecutionTime = 3280.19 s  ClockTime = 3311 s

Courant Number mean: 0.0677795 max: 4.60126
deltaT = 0.5
Time = 199s

PIMPLE: Iteration 1
smoothSolver:  Solving for Ux, Initial residual = 0.000206189, Final residual = 3.34495e-07, No Iterations 1
smoothSolver:  Solving for Uy, Initial residual = 0.00120545, Final residual = 2.18851e-06, No Iterations 1
smoothSolver:  Solving for Uz, Initial residual = 0.00382852, Final residual = 5.08837e-06, No Iterations 1
GAMG:  Solving for p, Initial residual = 0.00288756, Final residual = 0.000142912, No Iterations 5
GAMG:  Solving for p, Initial residual = 0.00172748, Final residual = 8.38535e-05, No Iterations 5
GAMG:  Solving for p, Initial residual = 0.000593633, Final residual = 2.82443e-05, No Iterations 19
time step continuity errors : sum local = 3.25994e-09, global = 3.56543e-10
GAMG:  Solving for p, Initial residual = 0.00205082, Final residual = 0.000102509, No Iterations 5
GAMG:  Solving for p, Initial residual = 0.0011704, Final residual = 5.12049e-05, No Iterations 7
GAMG:  Solving for p, Initial residual = 0.00044587, Final residual = 9.93468e-07, No Iterations 112
time step continuity errors : sum local = 1.1467e-10, global = 1.26548e-11
PIMPLE: Iteration 2
smoothSolver:  Solving for Ux, Initial residual = 6.42698e-05, Final residual = 1.65532e-09, No Iterations 2
smoothSolver:  Solving for Uy, Initial residual = 0.000378129, Final residual = 1.57658e-08, No Iterations 2
smoothSolver:  Solving for Uz, Initial residual = 0.00118673, Final residual = 3.19069e-08, No Iterations 2
GAMG:  Solving for p, Initial residual = 0.00284746, Final residual = 0.000126258, No Iterations 5
GAMG:  Solving for p, Initial residual = 0.00147813, Final residual = 6.60512e-05, No Iterations 5
GAMG:  Solving for p, Initial residual = 0.000466, Final residual = 2.27249e-05, No Iterations 21
time step continuity errors : sum local = 2.61927e-09, global = -3.27301e-10
GAMG:  Solving for p, Initial residual = 0.00201486, Final residual = 8.96686e-05, No Iterations 5
GAMG:  Solving for p, Initial residual = 0.00104664, Final residual = 4.87893e-05, No Iterations 5
GAMG:  Solving for p, Initial residual = 0.000335653, Final residual = 9.64731e-07, No Iterations 120
time step continuity errors : sum local = 1.11188e-10, global = -1.27249e-11, cumulative = 9.7496e-10
smoothSolver:  Solving for omega, Initial residual = 0.000614556, Final residual = 1.65732e-09, No Iterations 2
smoothSolver:  Solving for k, Initial residual = 0.000315265, Final residual = 7.63368e-09, No Iterations 2
ExecutionTime = 3286.28 s  ClockTime = 3317 s

Courant Number mean: 0.0677742 max: 4.59798
deltaT = 0.5
Time = 199.5s

PIMPLE: Iteration 1
smoothSolver:  Solving for Ux, Initial residual = 0.000205737, Final residual = 3.33195e-07, No Iterations 1
smoothSolver:  Solving for Uy, Initial residual = 0.00120425, Final residual = 2.1772e-06, No Iterations 1
smoothSolver:  Solving for Uz, Initial residual = 0.0038223, Final residual = 5.07065e-06, No Iterations 1
GAMG:  Solving for p, Initial residual = 0.00287949, Final residual = 0.000141348, No Iterations 5
GAMG:  Solving for p, Initial residual = 0.00173297, Final residual = 8.29943e-05, No Iterations 5
GAMG:  Solving for p, Initial residual = 0.00059343, Final residual = 2.78356e-05, No Iterations 19
time step continuity errors : sum local = 3.20981e-09, global = 3.49946e-10
GAMG:  Solving for p, Initial residual = 0.00204423, Final residual = 0.000101798, No Iterations 5
GAMG:  Solving for p, Initial residual = 0.00116842, Final residual = 5.0844e-05, No Iterations 7
GAMG:  Solving for p, Initial residual = 0.000444005, Final residual = 9.80724e-07, No Iterations 112
time step continuity errors : sum local = 1.13095e-10, global = 1.24764e-11
PIMPLE: Iteration 2
smoothSolver:  Solving for Ux, Initial residual = 6.41257e-05, Final residual = 1.6482e-09, No Iterations 2
smoothSolver:  Solving for Uy, Initial residual = 0.000377706, Final residual = 1.5484e-08, No Iterations 2
smoothSolver:  Solving for Uz, Initial residual = 0.00118507, Final residual = 3.19598e-08, No Iterations 2
GAMG:  Solving for p, Initial residual = 0.00283022, Final residual = 0.00012386, No Iterations 5
GAMG:  Solving for p, Initial residual = 0.00147258, Final residual = 6.53454e-05, No Iterations 5
GAMG:  Solving for p, Initial residual = 0.000463374, Final residual = 2.26173e-05, No Iterations 21
time step continuity errors : sum local = 2.6044e-09, global = -3.24597e-10
GAMG:  Solving for p, Initial residual = 0.00200293, Final residual = 8.86741e-05, No Iterations 5
GAMG:  Solving for p, Initial residual = 0.00104902, Final residual = 4.81173e-05, No Iterations 5
GAMG:  Solving for p, Initial residual = 0.000335011, Final residual = 9.53258e-07, No Iterations 120
time step continuity errors : sum local = 1.09762e-10, global = -1.25568e-11, cumulative = 9.62403e-10
smoothSolver:  Solving for omega, Initial residual = 0.000614762, Final residual = 1.65672e-09, No Iterations 2
smoothSolver:  Solving for k, Initial residual = 0.000314503, Final residual = 7.59601e-09, No Iterations 2
bounding k, min: -0.00263505 max: 4.91298 average: 0.710448
ExecutionTime = 3292.38 s  ClockTime = 3324 s

Courant Number mean: 0.067769 max: 4.59476
deltaT = 0.5
Time = 200s

PIMPLE: Iteration 1
smoothSolver:  Solving for Ux, Initial residual = 0.000205288, Final residual = 3.3187e-07, No Iterations 1
smoothSolver:  Solving for Uy, Initial residual = 0.00120322, Final residual = 2.16655e-06, No Iterations 1
smoothSolver:  Solving for Uz, Initial residual = 0.00381741, Final residual = 5.05357e-06, No Iterations 1
GAMG:  Solving for p, Initial residual = 0.00287555, Final residual = 0.000139857, No Iterations 5
GAMG:  Solving for p, Initial residual = 0.00174483, Final residual = 8.20643e-05, No Iterations 5
GAMG:  Solving for p, Initial residual = 0.000594928, Final residual = 2.73896e-05, No Iterations 19
time step continuity errors : sum local = 3.15556e-09, global = 3.4261e-10
GAMG:  Solving for p, Initial residual = 0.00204026, Final residual = 0.000101171, No Iterations 5
GAMG:  Solving for p, Initial residual = 0.00117893, Final residual = 5.88638e-05, No Iterations 5
GAMG:  Solving for p, Initial residual = 0.000409639, Final residual = 9.57343e-07, No Iterations 114
time step continuity errors : sum local = 1.103e-10, global = 1.21676e-11
PIMPLE: Iteration 2
smoothSolver:  Solving for Ux, Initial residual = 6.39827e-05, Final residual = 1.63972e-09, No Iterations 2
smoothSolver:  Solving for Uy, Initial residual = 0.000377331, Final residual = 1.53746e-08, No Iterations 2
smoothSolver:  Solving for Uz, Initial residual = 0.00118368, Final residual = 3.16797e-08, No Iterations 2
GAMG:  Solving for p, Initial residual = 0.00282835, Final residual = 0.000123212, No Iterations 5
GAMG:  Solving for p, Initial residual = 0.00146247, Final residual = 6.51689e-05, No Iterations 5
GAMG:  Solving for p, Initial residual = 0.000461512, Final residual = 2.25567e-05, No Iterations 21
time step continuity errors : sum local = 2.59507e-09, global = -3.23143e-10
GAMG:  Solving for p, Initial residual = 0.00200038, Final residual = 8.82842e-05, No Iterations 5
GAMG:  Solving for p, Initial residual = 0.00104514, Final residual = 4.784e-05, No Iterations 5
GAMG:  Solving for p, Initial residual = 0.000334234, Final residual = 9.46785e-07, No Iterations 120
time step continuity errors : sum local = 1.08918e-10, global = -1.24563e-11, cumulative = 9.49947e-10
smoothSolver:  Solving for omega, Initial residual = 0.000614973, Final residual = 1.6558e-09, No Iterations 2
smoothSolver:  Solving for k, Initial residual = 0.000313745, Final residual = 7.55827e-09, No Iterations 2
ExecutionTime = 3299.64 s  ClockTime = 3331 s

End

