/*---------------------------------------------------------------------------*\
  =========                 |
  \\      /  F ield         | OpenFOAM: The Open Source CFD Toolbox
   \\    /   O peration     | Website:  https://openfoam.org
    \\  /    A nd           | Version:  13
     \\/     M anipulation  |
\*---------------------------------------------------------------------------*/
Build  : 13-441953dfbb42
Exec   : foamRun -solver incompressibleFluid
Date   : Jun 19 2026
Time   : 10:36:04
Host   : "openfoam"
PID    : 1593
I/O    : uncollated
Case   : /home/ubuntu/OpenFOAM/ubuntu-v13/run/wStockNoTerrain/urans/winter
nProcs : 1
sigFpe : Floating point exception trapping - not supported on this platform
fileModificationChecking : Monitoring run-time modified files using timeStampMaster (fileModificationSkew 10)
allowSystemOperations : Allowing user-supplied system call operations

// * * * * * * * * * * * * * * * * * * * * * * * * * * * * * * * * * * * * * //
Create time

Create mesh for time = 0

Selecting solver incompressibleFluid
Selecting viscosity model constant
Selecting turbulence model type RAS
    Selecting RAS turbulence model kOmegaSST
No MRF models present

Selecting patchDistMethod meshWave
Courant Number mean: 0.00373819 max: 0.0936573

PIMPLE: No convergence criteria found


PIMPLE: No corrector convergence criteria found
        Calculations will do 2 corrections


PIMPLE: Operating solver in transient mode with 2 outer correctors


Reading surface description:
    pedestrianZone


Starting time loop

Courant Number mean: 0.00373819 max: 0.0936573
deltaT = 0.059952
Time = 0.059952s

PIMPLE: Iteration 1
smoothSolver:  Solving for Ux, Initial residual = 1, Final residual = 0.000305238, No Iterations 1
smoothSolver:  Solving for Uy, Initial residual = 1, Final residual = 0.00455874, No Iterations 1
smoothSolver:  Solving for Uz, Initial residual = 1, Final residual = 0.0020591, No Iterations 1
GAMG:  Solving for p, Initial residual = 1, Final residual = 0.0496407, No Iterations 55
GAMG:  Solving for p, Initial residual = 0.753233, Final residual = 0.0295453, No Iterations 3
GAMG:  Solving for p, Initial residual = 0.119437, Final residual = 0.00507461, No Iterations 5
time step continuity errors : sum local = 1.06695e-06, global = -6.48923e-08
GAMG:  Solving for p, Initial residual = 0.125689, Final residual = 0.00620322, No Iterations 49
GAMG:  Solving for p, Initial residual = 0.431857, Final residual = 0.0167109, No Iterations 3
GAMG:  Solving for p, Initial residual = 0.0813546, Final residual = 9.68149e-07, No Iterations 363
time step continuity errors : sum local = 2.04554e-10, global = -2.04573e-11
PIMPLE: Iteration 2
smoothSolver:  Solving for Ux, Initial residual = 0.00756499, Final residual = 6.35266e-09, No Iterations 2
smoothSolver:  Solving for Uy, Initial residual = 0.0207924, Final residual = 1.36741e-08, No Iterations 2
smoothSolver:  Solving for Uz, Initial residual = 0.0154526, Final residual = 5.37639e-08, No Iterations 2
GAMG:  Solving for p, Initial residual = 0.226823, Final residual = 0.0110445, No Iterations 36
GAMG:  Solving for p, Initial residual = 0.492803, Final residual = 0.0189162, No Iterations 3
GAMG:  Solving for p, Initial residual = 0.0868289, Final residual = 0.00431991, No Iterations 6
time step continuity errors : sum local = 8.18569e-07, global = 8.28483e-08
GAMG:  Solving for p, Initial residual = 0.100392, Final residual = 0.00482242, No Iterations 35
GAMG:  Solving for p, Initial residual = 0.302872, Final residual = 0.0118956, No Iterations 3
GAMG:  Solving for p, Initial residual = 0.0616448, Final residual = 9.81787e-07, No Iterations 361
time step continuity errors : sum local = 1.90587e-10, global = -1.89837e-11, cumulative = -1.89837e-11
smoothSolver:  Solving for omega, Initial residual = 0.00722314, Final residual = 2.30374e-10, No Iterations 2
smoothSolver:  Solving for k, Initial residual = 1, Final residual = 8.20966e-08, No Iterations 2
ExecutionTime = 18.6491 s  ClockTime = 22 s

Courant Number mean: 0.00464085 max: 1.13946
deltaT = 0.0718562
Time = 0.131808s

PIMPLE: Iteration 1
smoothSolver:  Solving for Ux, Initial residual = 0.12367, Final residual = 2.3082e-05, No Iterations 1
smoothSolver:  Solving for Uy, Initial residual = 0.361919, Final residual = 0.000152978, No Iterations 1
smoothSolver:  Solving for Uz, Initial residual = 0.301815, Final residual = 0.000298778, No Iterations 1
GAMG:  Solving for p, Initial residual = 0.216464, Final residual = 0.0100926, No Iterations 14
GAMG:  Solving for p, Initial residual = 0.29301, Final residual = 0.0139214, No Iterations 3
GAMG:  Solving for p, Initial residual = 0.100435, Final residual = 0.00488062, No Iterations 15
time step continuity errors : sum local = 5.4369e-07, global = -3.95431e-08
GAMG:  Solving for p, Initial residual = 0.173331, Final residual = 0.00865926, No Iterations 14
GAMG:  Solving for p, Initial residual = 0.227198, Final residual = 0.0112529, No Iterations 3
GAMG:  Solving for p, Initial residual = 0.0730692, Final residual = 9.60066e-07, No Iterations 314
time step continuity errors : sum local = 1.06673e-10, global = 1.09384e-11
PIMPLE: Iteration 2
smoothSolver:  Solving for Ux, Initial residual = 0.0204858, Final residual = 1.71784e-08, No Iterations 2
smoothSolver:  Solving for Uy, Initial residual = 0.0622952, Final residual = 1.80651e-09, No Iterations 3
smoothSolver:  Solving for Uz, Initial residual = 0.0507345, Final residual = 5.79327e-09, No Iterations 3
GAMG:  Solving for p, Initial residual = 0.211377, Final residual = 0.00965046, No Iterations 16
GAMG:  Solving for p, Initial residual = 0.318348, Final residual = 0.0142495, No Iterations 3
GAMG:  Solving for p, Initial residual = 0.0934617, Final residual = 0.00452192, No Iterations 13
time step continuity errors : sum local = 5.4915e-07, global = -4.02856e-08
GAMG:  Solving for p, Initial residual = 0.174857, Final residual = 0.00819425, No Iterations 16
GAMG:  Solving for p, Initial residual = 0.238696, Final residual = 0.0111071, No Iterations 3
GAMG:  Solving for p, Initial residual = 0.0666204, Final residual = 9.6842e-07, No Iterations 310
time step continuity errors : sum local = 1.19764e-10, global = 1.22576e-11, cumulative = -6.72607e-12
smoothSolver:  Solving for omega, Initial residual = 0.00576217, Final residual = 6.98451e-11, No Iterations 2
smoothSolver:  Solving for k, Initial residual = 0.987172, Final residual = 2.94166e-08, No Iterations 2
ExecutionTime = 33.0329 s  ClockTime = 36 s

Courant Number mean: 0.00557526 max: 1.52747
deltaT = 0.0861281
Time = 0.217936s

PIMPLE: Iteration 1
smoothSolver:  Solving for Ux, Initial residual = 0.0767397, Final residual = 1.1712e-05, No Iterations 1
smoothSolver:  Solving for Uy, Initial residual = 0.147371, Final residual = 9.47943e-05, No Iterations 1
smoothSolver:  Solving for Uz, Initial residual = 0.130909, Final residual = 0.000157377, No Iterations 1
GAMG:  Solving for p, Initial residual = 0.189785, Final residual = 0.0082594, No Iterations 12
GAMG:  Solving for p, Initial residual = 0.200387, Final residual = 0.00927143, No Iterations 3
GAMG:  Solving for p, Initial residual = 0.0498407, Final residual = 0.00242408, No Iterations 17
time step continuity errors : sum local = 3.74436e-07, global = -2.14659e-08
GAMG:  Solving for p, Initial residual = 0.146815, Final residual = 0.00637446, No Iterations 12
GAMG:  Solving for p, Initial residual = 0.142924, Final residual = 0.00690223, No Iterations 3
GAMG:  Solving for p, Initial residual = 0.0352255, Final residual = 9.84039e-07, No Iterations 285
time step continuity errors : sum local = 1.53841e-10, global = -1.52598e-11
PIMPLE: Iteration 2
smoothSolver:  Solving for Ux, Initial residual = 0.0177892, Final residual = 1.40313e-08, No Iterations 2
smoothSolver:  Solving for Uy, Initial residual = 0.0291796, Final residual = 2.03531e-09, No Iterations 3
smoothSolver:  Solving for Uz, Initial residual = 0.0279049, Final residual = 5.21145e-09, No Iterations 3
GAMG:  Solving for p, Initial residual = 0.169653, Final residual = 0.00815924, No Iterations 12
GAMG:  Solving for p, Initial residual = 0.193035, Final residual = 0.00882246, No Iterations 3
GAMG:  Solving for p, Initial residual = 0.045676, Final residual = 0.00211739, No Iterations 17
time step continuity errors : sum local = 3.56011e-07, global = -2.12389e-08
GAMG:  Solving for p, Initial residual = 0.129257, Final residual = 0.00610975, No Iterations 12
GAMG:  Solving for p, Initial residual = 0.135369, Final residual = 0.00645346, No Iterations 3
GAMG:  Solving for p, Initial residual = 0.0321965, Final residual = 9.7484e-07, No Iterations 255
time step continuity errors : sum local = 1.66244e-10, global = -1.62958e-11, cumulative = -2.30218e-11
smoothSolver:  Solving for omega, Initial residual = 0.00855437, Final residual = 1.77341e-10, No Iterations 2
smoothSolver:  Solving for k, Initial residual = 0.977391, Final residual = 4.95637e-08, No Iterations 2
ExecutionTime = 45.1038 s  ClockTime = 49 s

Courant Number mean: 0.00672146 max: 1.9118
deltaT = 0.103282
Time = 0.321219s

PIMPLE: Iteration 1
smoothSolver:  Solving for Ux, Initial residual = 0.0690485, Final residual = 7.99036e-06, No Iterations 1
smoothSolver:  Solving for Uy, Initial residual = 0.0529315, Final residual = 5.51862e-05, No Iterations 1
smoothSolver:  Solving for Uz, Initial residual = 0.0752108, Final residual = 7.67087e-05, No Iterations 1
GAMG:  Solving for p, Initial residual = 0.167354, Final residual = 0.0079796, No Iterations 10
GAMG:  Solving for p, Initial residual = 0.165034, Final residual = 0.0078473, No Iterations 3
GAMG:  Solving for p, Initial residual = 0.0382428, Final residual = 0.00175733, No Iterations 17
time step continuity errors : sum local = 4.09516e-07, global = -2.50159e-08
GAMG:  Solving for p, Initial residual = 0.123444, Final residual = 0.00583003, No Iterations 10
GAMG:  Solving for p, Initial residual = 0.113798, Final residual = 0.00567583, No Iterations 3
GAMG:  Solving for p, Initial residual = 0.0268705, Final residual = 9.76005e-07, No Iterations 241
time step continuity errors : sum local = 2.29671e-10, global = -2.24249e-11
PIMPLE: Iteration 2
smoothSolver:  Solving for Ux, Initial residual = 0.0177586, Final residual = 9.92262e-09, No Iterations 2
smoothSolver:  Solving for Uy, Initial residual = 0.00807, Final residual = 1.89442e-09, No Iterations 3
smoothSolver:  Solving for Uz, Initial residual = 0.0179872, Final residual = 3.52993e-09, No Iterations 3
GAMG:  Solving for p, Initial residual = 0.147837, Final residual = 0.00706011, No Iterations 9
GAMG:  Solving for p, Initial residual = 0.130723, Final residual = 0.00609488, No Iterations 3
GAMG:  Solving for p, Initial residual = 0.0300754, Final residual = 0.00144276, No Iterations 16
time step continuity errors : sum local = 3.45444e-07, global = -2.11771e-08
GAMG:  Solving for p, Initial residual = 0.106154, Final residual = 0.00516025, No Iterations 9
GAMG:  Solving for p, Initial residual = 0.0891354, Final residual = 0.00444633, No Iterations 3
GAMG:  Solving for p, Initial residual = 0.021211, Final residual = 9.91723e-07, No Iterations 214
time step continuity errors : sum local = 2.39485e-10, global = -2.27276e-11, cumulative = -4.57494e-11
smoothSolver:  Solving for omega, Initial residual = 0.0106909, Final residual = 4.00605e-10, No Iterations 2
smoothSolver:  Solving for k, Initial residual = 0.797111, Final residual = 7.47894e-08, No Iterations 2
ExecutionTime = 55.3619 s  ClockTime = 59 s

Courant Number mean: 0.00812389 max: 2.27857
deltaT = 0.123887
Time = 0.445106s

PIMPLE: Iteration 1
smoothSolver:  Solving for Ux, Initial residual = 0.0673218, Final residual = 6.77679e-06, No Iterations 1
smoothSolver:  Solving for Uy, Initial residual = 0.0412146, Final residual = 4.02371e-05, No Iterations 1
smoothSolver:  Solving for Uz, Initial residual = 0.0794621, Final residual = 0.000114249, No Iterations 1
GAMG:  Solving for p, Initial residual = 0.173327, Final residual = 0.00836963, No Iterations 4
GAMG:  Solving for p, Initial residual = 0.0749693, Final residual = 0.00313113, No Iterations 5
GAMG:  Solving for p, Initial residual = 0.0205461, Final residual = 0.000953352, No Iterations 12
time step continuity errors : sum local = 2.8032e-07, global = -1.52438e-08
GAMG:  Solving for p, Initial residual = 0.123207, Final residual = 0.00598153, No Iterations 4
GAMG:  Solving for p, Initial residual = 0.0512601, Final residual = 0.00230812, No Iterations 5
GAMG:  Solving for p, Initial residual = 0.0145331, Final residual = 9.98613e-07, No Iterations 228
time step continuity errors : sum local = 2.95062e-10, global = -2.91662e-11
PIMPLE: Iteration 2
smoothSolver:  Solving for Ux, Initial residual = 0.0182987, Final residual = 8.3863e-09, No Iterations 2
smoothSolver:  Solving for Uy, Initial residual = 0.0143115, Final residual = 3.74453e-09, No Iterations 3
smoothSolver:  Solving for Uz, Initial residual = 0.0236541, Final residual = 1.63791e-08, No Iterations 3
GAMG:  Solving for p, Initial residual = 0.150181, Final residual = 0.00674082, No Iterations 4
GAMG:  Solving for p, Initial residual = 0.060066, Final residual = 0.00272079, No Iterations 4
GAMG:  Solving for p, Initial residual = 0.0146882, Final residual = 0.000611526, No Iterations 11
time step continuity errors : sum local = 1.8023e-07, global = -9.02027e-09
GAMG:  Solving for p, Initial residual = 0.105178, Final residual = 0.00478083, No Iterations 4
GAMG:  Solving for p, Initial residual = 0.0413183, Final residual = 0.00197244, No Iterations 4
GAMG:  Solving for p, Initial residual = 0.0103584, Final residual = 9.59687e-07, No Iterations 215
time step continuity errors : sum local = 2.83473e-10, global = -2.80757e-11, cumulative = -7.38251e-11
smoothSolver:  Solving for omega, Initial residual = 0.0128577, Final residual = 9.00238e-10, No Iterations 2
smoothSolver:  Solving for k, Initial residual = 0.635679, Final residual = 1.00073e-09, No Iterations 3
ExecutionTime = 64.664 s  ClockTime = 68 s

Courant Number mean: 0.00983015 max: 2.56463
deltaT = 0.148368
Time = 0.593474s

PIMPLE: Iteration 1
smoothSolver:  Solving for Ux, Initial residual = 0.0677089, Final residual = 9.02441e-06, No Iterations 1
smoothSolver:  Solving for Uy, Initial residual = 0.0739198, Final residual = 8.43633e-05, No Iterations 1
smoothSolver:  Solving for Uz, Initial residual = 0.0910227, Final residual = 0.000190181, No Iterations 1
GAMG:  Solving for p, Initial residual = 0.147035, Final residual = 0.00706153, No Iterations 4
GAMG:  Solving for p, Initial residual = 0.0574329, Final residual = 0.00278523, No Iterations 5
GAMG:  Solving for p, Initial residual = 0.0174835, Final residual = 0.000862344, No Iterations 13
time step continuity errors : sum local = 3.29702e-07, global = 2.66394e-08
GAMG:  Solving for p, Initial residual = 0.104998, Final residual = 0.00514324, No Iterations 4
GAMG:  Solving for p, Initial residual = 0.0402257, Final residual = 0.00183838, No Iterations 6
GAMG:  Solving for p, Initial residual = 0.0130216, Final residual = 9.77427e-07, No Iterations 245
time step continuity errors : sum local = 3.73179e-10, global = -3.75756e-11
PIMPLE: Iteration 2
smoothSolver:  Solving for Ux, Initial residual = 0.0188635, Final residual = 1.53959e-08, No Iterations 2
smoothSolver:  Solving for Uy, Initial residual = 0.0204219, Final residual = 1.01732e-08, No Iterations 3
smoothSolver:  Solving for Uz, Initial residual = 0.0249428, Final residual = 2.98556e-08, No Iterations 3
GAMG:  Solving for p, Initial residual = 0.121564, Final residual = 0.00557867, No Iterations 5
GAMG:  Solving for p, Initial residual = 0.0548715, Final residual = 0.0026823, No Iterations 5
GAMG:  Solving for p, Initial residual = 0.0168304, Final residual = 0.000820995, No Iterations 14
time step continuity errors : sum local = 3.14434e-07, global = 2.51017e-08
GAMG:  Solving for p, Initial residual = 0.0870459, Final residual = 0.00404649, No Iterations 5
GAMG:  Solving for p, Initial residual = 0.0384147, Final residual = 0.0017635, No Iterations 6
GAMG:  Solving for p, Initial residual = 0.0125775, Final residual = 9.76583e-07, No Iterations 252
time step continuity errors : sum local = 3.73366e-10, global = -3.78249e-11, cumulative = -1.1165e-10
smoothSolver:  Solving for omega, Initial residual = 0.0152591, Final residual = 1.99424e-09, No Iterations 2
smoothSolver:  Solving for k, Initial residual = 0.574349, Final residual = 1.97097e-09, No Iterations 3
ExecutionTime = 75.0832 s  ClockTime = 79 s

Courant Number mean: 0.0118894 max: 2.79769
deltaT = 0.177721
Time = 0.771195s

PIMPLE: Iteration 1
smoothSolver:  Solving for Ux, Initial residual = 0.0684627, Final residual = 1.18308e-05, No Iterations 1
smoothSolver:  Solving for Uy, Initial residual = 0.0612125, Final residual = 9.91446e-05, No Iterations 1
smoothSolver:  Solving for Uz, Initial residual = 0.0780299, Final residual = 0.00018341, No Iterations 1
GAMG:  Solving for p, Initial residual = 0.0979377, Final residual = 0.00407873, No Iterations 6
GAMG:  Solving for p, Initial residual = 0.0476947, Final residual = 0.00230598, No Iterations 5
GAMG:  Solving for p, Initial residual = 0.0146018, Final residual = 0.00067021, No Iterations 15
time step continuity errors : sum local = 3.41633e-07, global = 2.50015e-08
GAMG:  Solving for p, Initial residual = 0.0709609, Final residual = 0.00296747, No Iterations 6
GAMG:  Solving for p, Initial residual = 0.0332408, Final residual = 0.00147152, No Iterations 6
GAMG:  Solving for p, Initial residual = 0.0107603, Final residual = 9.71531e-07, No Iterations 180
time step continuity errors : sum local = 4.94912e-10, global = 5.57309e-11
PIMPLE: Iteration 2
smoothSolver:  Solving for Ux, Initial residual = 0.0192969, Final residual = 2.26552e-08, No Iterations 2
smoothSolver:  Solving for Uy, Initial residual = 0.0146379, Final residual = 1.64295e-08, No Iterations 3
smoothSolver:  Solving for Uz, Initial residual = 0.0210317, Final residual = 3.10801e-08, No Iterations 3
GAMG:  Solving for p, Initial residual = 0.0804738, Final residual = 0.00368316, No Iterations 6
GAMG:  Solving for p, Initial residual = 0.0423274, Final residual = 0.00182707, No Iterations 6
GAMG:  Solving for p, Initial residual = 0.0135397, Final residual = 0.000639486, No Iterations 14
time step continuity errors : sum local = 3.26729e-07, global = 2.39264e-08
GAMG:  Solving for p, Initial residual = 0.0581988, Final residual = 0.00266353, No Iterations 6
GAMG:  Solving for p, Initial residual = 0.0293795, Final residual = 0.00135687, No Iterations 6
GAMG:  Solving for p, Initial residual = 0.00964619, Final residual = 9.74831e-07, No Iterations 217
time step continuity errors : sum local = 4.98078e-10, global = -5.42685e-11, cumulative = -1.65918e-10
smoothSolver:  Solving for omega, Initial residual = 0.0178009, Final residual = 4.3348e-09, No Iterations 2
smoothSolver:  Solving for k, Initial residual = 0.56333, Final residual = 4.46783e-09, No Iterations 3
ExecutionTime = 84.3433 s  ClockTime = 88 s

Courant Number mean: 0.0144059 max: 3.04053
deltaT = 0.213112
Time = 0.984307s

PIMPLE: Iteration 1
smoothSolver:  Solving for Ux, Initial residual = 0.0694268, Final residual = 1.51841e-05, No Iterations 1
smoothSolver:  Solving for Uy, Initial residual = 0.0283733, Final residual = 7.71141e-05, No Iterations 1
smoothSolver:  Solving for Uz, Initial residual = 0.0666376, Final residual = 0.000160571, No Iterations 1
GAMG:  Solving for p, Initial residual = 0.0838051, Final residual = 0.00365977, No Iterations 4
GAMG:  Solving for p, Initial residual = 0.0315396, Final residual = 0.00157543, No Iterations 6
GAMG:  Solving for p, Initial residual = 0.0110637, Final residual = 0.000495162, No Iterations 16
time step continuity errors : sum local = 3.39694e-07, global = 2.02302e-08
GAMG:  Solving for p, Initial residual = 0.0602632, Final residual = 0.00262319, No Iterations 4
GAMG:  Solving for p, Initial residual = 0.0216114, Final residual = 0.000959848, No Iterations 8
GAMG:  Solving for p, Initial residual = 0.00857529, Final residual = 9.69675e-07, No Iterations 166
time step continuity errors : sum local = 6.64513e-10, global = 6.04528e-11
PIMPLE: Iteration 2
smoothSolver:  Solving for Ux, Initial residual = 0.0197583, Final residual = 3.08637e-08, No Iterations 2
smoothSolver:  Solving for Uy, Initial residual = 0.00710989, Final residual = 2.24767e-08, No Iterations 3
smoothSolver:  Solving for Uz, Initial residual = 0.0187261, Final residual = 3.63626e-08, No Iterations 3
GAMG:  Solving for p, Initial residual = 0.0709266, Final residual = 0.00294956, No Iterations 4
GAMG:  Solving for p, Initial residual = 0.0255474, Final residual = 0.00122433, No Iterations 6
GAMG:  Solving for p, Initial residual = 0.00872471, Final residual = 0.000406412, No Iterations 13
time step continuity errors : sum local = 2.80837e-07, global = 1.96528e-08
GAMG:  Solving for p, Initial residual = 0.0504544, Final residual = 0.00210122, No Iterations 4
GAMG:  Solving for p, Initial residual = 0.017618, Final residual = 0.000776743, No Iterations 7
GAMG:  Solving for p, Initial residual = 0.00642109, Final residual = 9.9269e-07, No Iterations 146
time step continuity errors : sum local = 6.85928e-10, global = 5.15404e-11, cumulative = -1.14378e-10
smoothSolver:  Solving for omega, Initial residual = 0.0207776, Final residual = 9.34301e-09, No Iterations 2
smoothSolver:  Solving for k, Initial residual = 0.590191, Final residual = 9.01862e-09, No Iterations 3
ExecutionTime = 91.735 s  ClockTime = 95 s

Courant Number mean: 0.0175074 max: 3.4493
deltaT = 0.25529
--> FOAM Warning : 
    From function virtual Foam::Time& Foam::Time::operator++()
    in file db/Time/Time.C at line 1304
    Increased the timePrecision from 6 to 7 to distinguish between timeNames at time 1.239597
Time = 1.239597s

PIMPLE: Iteration 1
smoothSolver:  Solving for Ux, Initial residual = 0.0707773, Final residual = 2.06489e-05, No Iterations 1
smoothSolver:  Solving for Uy, Initial residual = 0.0334614, Final residual = 0.000107421, No Iterations 1
smoothSolver:  Solving for Uz, Initial residual = 0.0637859, Final residual = 0.000179899, No Iterations 1
GAMG:  Solving for p, Initial residual = 0.0723676, Final residual = 0.00354063, No Iterations 3
GAMG:  Solving for p, Initial residual = 0.0214741, Final residual = 0.000932967, No Iterations 6
GAMG:  Solving for p, Initial residual = 0.00673375, Final residual = 0.000298052, No Iterations 14
time step continuity errors : sum local = 2.85564e-07, global = 1.62488e-08
GAMG:  Solving for p, Initial residual = 0.0508921, Final residual = 0.00249269, No Iterations 3
GAMG:  Solving for p, Initial residual = 0.0146559, Final residual = 0.000687055, No Iterations 6
GAMG:  Solving for p, Initial residual = 0.00473131, Final residual = 9.63087e-07, No Iterations 196
time step continuity errors : sum local = 9.20212e-10, global = 9.21168e-11
PIMPLE: Iteration 2
smoothSolver:  Solving for Ux, Initial residual = 0.0203781, Final residual = 5.25606e-08, No Iterations 2
smoothSolver:  Solving for Uy, Initial residual = 0.00979077, Final residual = 4.81439e-08, No Iterations 3
smoothSolver:  Solving for Uz, Initial residual = 0.0177943, Final residual = 6.21089e-08, No Iterations 3
GAMG:  Solving for p, Initial residual = 0.0578661, Final residual = 0.00218561, No Iterations 4
GAMG:  Solving for p, Initial residual = 0.0193618, Final residual = 0.000863609, No Iterations 4
GAMG:  Solving for p, Initial residual = 0.00503159, Final residual = 0.000232885, No Iterations 11
time step continuity errors : sum local = 2.24665e-07, global = 1.15421e-08
GAMG:  Solving for p, Initial residual = 0.040342, Final residual = 0.0015383, No Iterations 4
GAMG:  Solving for p, Initial residual = 0.0132494, Final residual = 0.000637979, No Iterations 4
GAMG:  Solving for p, Initial residual = 0.00356266, Final residual = 9.75801e-07, No Iterations 141
time step continuity errors : sum local = 9.39859e-10, global = 8.56135e-11, cumulative = -2.87645e-11
smoothSolver:  Solving for omega, Initial residual = 0.0242462, Final residual = 1.99515e-08, No Iterations 2
smoothSolver:  Solving for k, Initial residual = 0.656775, Final residual = 1.95693e-08, No Iterations 3
ExecutionTime = 99.2796 s  ClockTime = 103 s

Courant Number mean: 0.0213047 max: 4.00334
deltaT = 0.304753
Time = 1.544349s

PIMPLE: Iteration 1
smoothSolver:  Solving for Ux, Initial residual = 0.0726479, Final residual = 2.85639e-05, No Iterations 1
smoothSolver:  Solving for Uy, Initial residual = 0.0348211, Final residual = 0.000140805, No Iterations 1
smoothSolver:  Solving for Uz, Initial residual = 0.0573426, Final residual = 0.000177552, No Iterations 1
GAMG:  Solving for p, Initial residual = 0.0502257, Final residual = 0.00236417, No Iterations 4
GAMG:  Solving for p, Initial residual = 0.0171904, Final residual = 0.000851184, No Iterations 6
GAMG:  Solving for p, Initial residual = 0.00536183, Final residual = 0.000242147, No Iterations 15
time step continuity errors : sum local = 3.22717e-07, global = 1.85455e-08
GAMG:  Solving for p, Initial residual = 0.0348657, Final residual = 0.00166472, No Iterations 4
GAMG:  Solving for p, Initial residual = 0.0118038, Final residual = 0.000507083, No Iterations 7
GAMG:  Solving for p, Initial residual = 0.00382571, Final residual = 9.69649e-07, No Iterations 212
time step continuity errors : sum local = 1.28793e-09, global = 1.31442e-10
PIMPLE: Iteration 2
smoothSolver:  Solving for Ux, Initial residual = 0.0212042, Final residual = 9.22882e-08, No Iterations 2
smoothSolver:  Solving for Uy, Initial residual = 0.00901544, Final residual = 7.95912e-08, No Iterations 3
smoothSolver:  Solving for Uz, Initial residual = 0.0160849, Final residual = 8.18567e-08, No Iterations 3
GAMG:  Solving for p, Initial residual = 0.0376002, Final residual = 0.00152882, No Iterations 5
GAMG:  Solving for p, Initial residual = 0.014924, Final residual = 0.000681105, No Iterations 5
GAMG:  Solving for p, Initial residual = 0.00435322, Final residual = 0.000207389, No Iterations 13
time step continuity errors : sum local = 2.78369e-07, global = 1.70918e-08
GAMG:  Solving for p, Initial residual = 0.0260971, Final residual = 0.00107154, No Iterations 5
GAMG:  Solving for p, Initial residual = 0.0102628, Final residual = 0.000499603, No Iterations 5
GAMG:  Solving for p, Initial residual = 0.00304703, Final residual = 9.61658e-07, No Iterations 185
time step continuity errors : sum local = 1.28895e-09, global = 1.30867e-10, cumulative = 1.02103e-10
smoothSolver:  Solving for omega, Initial residual = 0.0279711, Final residual = 4.14707e-08, No Iterations 2
smoothSolver:  Solving for k, Initial residual = 0.771234, Final residual = 4.38818e-08, No Iterations 3
ExecutionTime = 108.155 s  ClockTime = 112 s

Courant Number mean: 0.0259018 max: 4.71009
deltaT = 0.323038
Time = 1.867387s

PIMPLE: Iteration 1
smoothSolver:  Solving for Ux, Initial residual = 0.0677882, Final residual = 2.99399e-05, No Iterations 1
smoothSolver:  Solving for Uy, Initial residual = 0.021295, Final residual = 0.000107774, No Iterations 1
smoothSolver:  Solving for Uz, Initial residual = 0.0455645, Final residual = 0.000134122, No Iterations 1
GAMG:  Solving for p, Initial residual = 0.034127, Final residual = 0.00150303, No Iterations 4
GAMG:  Solving for p, Initial residual = 0.0110988, Final residual = 0.000519455, No Iterations 6
GAMG:  Solving for p, Initial residual = 0.00378844, Final residual = 0.000172857, No Iterations 12
time step continuity errors : sum local = 2.63932e-07, global = -1.88083e-08
GAMG:  Solving for p, Initial residual = 0.0238471, Final residual = 0.0010505, No Iterations 4
GAMG:  Solving for p, Initial residual = 0.00760147, Final residual = 0.000379766, No Iterations 6
GAMG:  Solving for p, Initial residual = 0.00266159, Final residual = 9.60836e-07, No Iterations 170
time step continuity errors : sum local = 1.46668e-09, global = -1.51183e-10
PIMPLE: Iteration 2
smoothSolver:  Solving for Ux, Initial residual = 0.0202109, Final residual = 2.70218e-09, No Iterations 3
smoothSolver:  Solving for Uy, Initial residual = 0.0057099, Final residual = 7.59769e-08, No Iterations 3
smoothSolver:  Solving for Uz, Initial residual = 0.0131149, Final residual = 4.78637e-08, No Iterations 3
GAMG:  Solving for p, Initial residual = 0.028833, Final residual = 0.00137802, No Iterations 4
GAMG:  Solving for p, Initial residual = 0.010537, Final residual = 0.000525433, No Iterations 6
GAMG:  Solving for p, Initial residual = 0.00343342, Final residual = 0.000158723, No Iterations 18
time step continuity errors : sum local = 2.44104e-07, global = -1.4993e-08
GAMG:  Solving for p, Initial residual = 0.0202217, Final residual = 0.000965185, No Iterations 4
GAMG:  Solving for p, Initial residual = 0.00717322, Final residual = 0.000326249, No Iterations 8
GAMG:  Solving for p, Initial residual = 0.00260867, Final residual = 9.69078e-07, No Iterations 192
time step continuity errors : sum local = 1.492e-09, global = -1.52259e-10, cumulative = -5.01566e-11
smoothSolver:  Solving for omega, Initial residual = 0.0287699, Final residual = 5.52738e-08, No Iterations 2
smoothSolver:  Solving for k, Initial residual = 0.797583, Final residual = 5.96046e-08, No Iterations 3
ExecutionTime = 116.584 s  ClockTime = 120 s

Courant Number mean: 0.0279929 max: 4.96314
deltaT = 0.32522
Time = 2.192607s

PIMPLE: Iteration 1
smoothSolver:  Solving for Ux, Initial residual = 0.062416, Final residual = 2.80088e-05, No Iterations 1
smoothSolver:  Solving for Uy, Initial residual = 0.0167034, Final residual = 7.21216e-05, No Iterations 1
smoothSolver:  Solving for Uz, Initial residual = 0.0364733, Final residual = 0.000114124, No Iterations 1
GAMG:  Solving for p, Initial residual = 0.0307652, Final residual = 0.0015211, No Iterations 3
GAMG:  Solving for p, Initial residual = 0.00848901, Final residual = 0.000363117, No Iterations 9
GAMG:  Solving for p, Initial residual = 0.003582, Final residual = 0.000173449, No Iterations 14
time step continuity errors : sum local = 2.74932e-07, global = -1.76121e-08
GAMG:  Solving for p, Initial residual = 0.0215128, Final residual = 0.00106154, No Iterations 3
GAMG:  Solving for p, Initial residual = 0.00571028, Final residual = 0.000283064, No Iterations 9
GAMG:  Solving for p, Initial residual = 0.00266122, Final residual = 9.67938e-07, No Iterations 222
time step continuity errors : sum local = 1.53706e-09, global = -1.58673e-10
PIMPLE: Iteration 2
smoothSolver:  Solving for Ux, Initial residual = 0.0188965, Final residual = 9.88931e-08, No Iterations 2
smoothSolver:  Solving for Uy, Initial residual = 0.00509933, Final residual = 5.98654e-08, No Iterations 3
smoothSolver:  Solving for Uz, Initial residual = 0.0107583, Final residual = 4.14965e-08, No Iterations 3
GAMG:  Solving for p, Initial residual = 0.0261198, Final residual = 0.00103832, No Iterations 4
GAMG:  Solving for p, Initial residual = 0.00754857, Final residual = 0.000357322, No Iterations 10
GAMG:  Solving for p, Initial residual = 0.00318275, Final residual = 0.000150427, No Iterations 14
time step continuity errors : sum local = 2.40948e-07, global = -1.61994e-08
GAMG:  Solving for p, Initial residual = 0.0182444, Final residual = 0.000725764, No Iterations 4
GAMG:  Solving for p, Initial residual = 0.0050856, Final residual = 0.000227969, No Iterations 12
GAMG:  Solving for p, Initial residual = 0.00260186, Final residual = 9.79558e-07, No Iterations 210
time step continuity errors : sum local = 1.57286e-09, global = -1.62015e-10, cumulative = -2.12172e-10
smoothSolver:  Solving for omega, Initial residual = 0.0282131, Final residual = 5.74802e-08, No Iterations 2
smoothSolver:  Solving for k, Initial residual = 0.798663, Final residual = 6.37452e-08, No Iterations 3
ExecutionTime = 126.424 s  ClockTime = 130 s

Courant Number mean: 0.0287295 max: 4.9681
deltaT = 0.32522
Time = 2.517828s

PIMPLE: Iteration 1
smoothSolver:  Solving for Ux, Initial residual = 0.058618, Final residual = 2.62983e-05, No Iterations 1
smoothSolver:  Solving for Uy, Initial residual = 0.0163235, Final residual = 5.7993e-05, No Iterations 1
smoothSolver:  Solving for Uz, Initial residual = 0.0306319, Final residual = 9.8081e-05, No Iterations 1
GAMG:  Solving for p, Initial residual = 0.0251384, Final residual = 0.000889604, No Iterations 4
GAMG:  Solving for p, Initial residual = 0.00660193, Final residual = 0.000310993, No Iterations 10
GAMG:  Solving for p, Initial residual = 0.00330003, Final residual = 0.000161338, No Iterations 10
time step continuity errors : sum local = 2.60522e-07, global = -2.03634e-08
GAMG:  Solving for p, Initial residual = 0.017517, Final residual = 0.000634115, No Iterations 4
GAMG:  Solving for p, Initial residual = 0.00444703, Final residual = 0.000213441, No Iterations 12
GAMG:  Solving for p, Initial residual = 0.00288616, Final residual = 9.81864e-07, No Iterations 222
time step continuity errors : sum local = 1.5891e-09, global = -1.64206e-10
PIMPLE: Iteration 2
smoothSolver:  Solving for Ux, Initial residual = 0.017895, Final residual = 9.16461e-08, No Iterations 2
smoothSolver:  Solving for Uy, Initial residual = 0.00467493, Final residual = 4.74382e-08, No Iterations 3
smoothSolver:  Solving for Uz, Initial residual = 0.00911667, Final residual = 3.11892e-08, No Iterations 3
GAMG:  Solving for p, Initial residual = 0.0208658, Final residual = 0.000835297, No Iterations 4
GAMG:  Solving for p, Initial residual = 0.00570093, Final residual = 0.000283778, No Iterations 10
GAMG:  Solving for p, Initial residual = 0.00280497, Final residual = 0.000135676, No Iterations 12
time step continuity errors : sum local = 2.2019e-07, global = -1.54605e-08
GAMG:  Solving for p, Initial residual = 0.0145787, Final residual = 0.000588615, No Iterations 4
GAMG:  Solving for p, Initial residual = 0.00386981, Final residual = 0.000183996, No Iterations 12
GAMG:  Solving for p, Initial residual = 0.00236516, Final residual = 9.84504e-07, No Iterations 208
time step continuity errors : sum local = 1.60155e-09, global = -1.64737e-10, cumulative = -3.76908e-10
smoothSolver:  Solving for omega, Initial residual = 0.0269647, Final residual = 5.57629e-08, No Iterations 2
smoothSolver:  Solving for k, Initial residual = 0.8242, Final residual = 6.59328e-08, No Iterations 3
ExecutionTime = 136.65 s  ClockTime = 140 s

Courant Number mean: 0.0292697 max: 4.93505
deltaT = 0.327463
Time = 2.845291s

PIMPLE: Iteration 1
smoothSolver:  Solving for Ux, Initial residual = 0.0561521, Final residual = 2.55835e-05, No Iterations 1
smoothSolver:  Solving for Uy, Initial residual = 0.0131998, Final residual = 4.90917e-05, No Iterations 1
smoothSolver:  Solving for Uz, Initial residual = 0.0261962, Final residual = 8.14125e-05, No Iterations 1
GAMG:  Solving for p, Initial residual = 0.0186341, Final residual = 0.000926207, No Iterations 3
GAMG:  Solving for p, Initial residual = 0.00491883, Final residual = 0.000230144, No Iterations 12
GAMG:  Solving for p, Initial residual = 0.00297431, Final residual = 0.000138781, No Iterations 10
time step continuity errors : sum local = 2.2838e-07, global = -1.8642e-08
GAMG:  Solving for p, Initial residual = 0.0130104, Final residual = 0.000551194, No Iterations 4
GAMG:  Solving for p, Initial residual = 0.00360701, Final residual = 0.000165295, No Iterations 11
GAMG:  Solving for p, Initial residual = 0.00209962, Final residual = 9.79986e-07, No Iterations 218
time step continuity errors : sum local = 1.61635e-09, global = -1.66775e-10
PIMPLE: Iteration 2
smoothSolver:  Solving for Ux, Initial residual = 0.0172232, Final residual = 8.92016e-08, No Iterations 2
smoothSolver:  Solving for Uy, Initial residual = 0.00363702, Final residual = 4.19203e-08, No Iterations 3
smoothSolver:  Solving for Uz, Initial residual = 0.00778656, Final residual = 2.30307e-08, No Iterations 3
GAMG:  Solving for p, Initial residual = 0.0157611, Final residual = 0.000696594, No Iterations 4
GAMG:  Solving for p, Initial residual = 0.00436557, Final residual = 0.000199725, No Iterations 9
GAMG:  Solving for p, Initial residual = 0.00193574, Final residual = 8.98683e-05, No Iterations 16
time step continuity errors : sum local = 1.487e-07, global = -1.07151e-08
GAMG:  Solving for p, Initial residual = 0.0110459, Final residual = 0.000499249, No Iterations 4
GAMG:  Solving for p, Initial residual = 0.00303275, Final residual = 0.000131194, No Iterations 11
GAMG:  Solving for p, Initial residual = 0.0015899, Final residual = 9.81814e-07, No Iterations 194
time step continuity errors : sum local = 1.62772e-09, global = -1.67224e-10, cumulative = -5.44132e-10
smoothSolver:  Solving for omega, Initial residual = 0.0257544, Final residual = 5.4833e-08, No Iterations 2
smoothSolver:  Solving for k, Initial residual = 0.848113, Final residual = 6.80531e-08, No Iterations 3
ExecutionTime = 146.223 s  ClockTime = 150 s

Courant Number mean: 0.0300062 max: 4.94389
deltaT = 0.329753
Time = 3.175044s

PIMPLE: Iteration 1
smoothSolver:  Solving for Ux, Initial residual = 0.0541116, Final residual = 2.50828e-05, No Iterations 1
smoothSolver:  Solving for Uy, Initial residual = 0.00976532, Final residual = 4.4573e-05, No Iterations 1
smoothSolver:  Solving for Uz, Initial residual = 0.0221977, Final residual = 6.75837e-05, No Iterations 1
GAMG:  Solving for p, Initial residual = 0.015683, Final residual = 0.000633885, No Iterations 3
GAMG:  Solving for p, Initial residual = 0.00393473, Final residual = 0.000192838, No Iterations 8
GAMG:  Solving for p, Initial residual = 0.00178501, Final residual = 8.88937e-05, No Iterations 18
time step continuity errors : sum local = 1.49187e-07, global = -1.30868e-08
GAMG:  Solving for p, Initial residual = 0.0110031, Final residual = 0.000448896, No Iterations 3
GAMG:  Solving for p, Initial residual = 0.00279478, Final residual = 0.000136423, No Iterations 10
GAMG:  Solving for p, Initial residual = 0.00150449, Final residual = 9.7014e-07, No Iterations 208
time step continuity errors : sum local = 1.63122e-09, global = -1.68374e-10
PIMPLE: Iteration 2
smoothSolver:  Solving for Ux, Initial residual = 0.0166424, Final residual = 8.73522e-08, No Iterations 2
smoothSolver:  Solving for Uy, Initial residual = 0.00289987, Final residual = 4.00739e-08, No Iterations 3
smoothSolver:  Solving for Uz, Initial residual = 0.00659075, Final residual = 1.76147e-08, No Iterations 3
GAMG:  Solving for p, Initial residual = 0.0134031, Final residual = 0.000542925, No Iterations 3
GAMG:  Solving for p, Initial residual = 0.00331482, Final residual = 0.000153695, No Iterations 8
GAMG:  Solving for p, Initial residual = 0.00131625, Final residual = 6.18003e-05, No Iterations 14
time step continuity errors : sum local = 1.04146e-07, global = -7.08155e-09
GAMG:  Solving for p, Initial residual = 0.00937134, Final residual = 0.000383026, No Iterations 3
GAMG:  Solving for p, Initial residual = 0.00231533, Final residual = 0.00010465, No Iterations 10
GAMG:  Solving for p, Initial residual = 0.00107466, Final residual = 9.92658e-07, No Iterations 168
time step continuity errors : sum local = 1.67488e-09, global = -1.71146e-10, cumulative = -7.15278e-10
smoothSolver:  Solving for omega, Initial residual = 0.0245239, Final residual = 5.38804e-08, No Iterations 2
smoothSolver:  Solving for k, Initial residual = 0.846503, Final residual = 7.04632e-08, No Iterations 3
ExecutionTime = 154.818 s  ClockTime = 158 s

Courant Number mean: 0.0307445 max: 4.97013
deltaT = 0.329753
Time = 3.504798s

PIMPLE: Iteration 1
smoothSolver:  Solving for Ux, Initial residual = 0.0519535, Final residual = 2.42459e-05, No Iterations 1
smoothSolver:  Solving for Uy, Initial residual = 0.00866627, Final residual = 4.30865e-05, No Iterations 1
smoothSolver:  Solving for Uz, Initial residual = 0.0187324, Final residual = 5.60269e-05, No Iterations 1
GAMG:  Solving for p, Initial residual = 0.0136278, Final residual = 0.00046644, No Iterations 3
GAMG:  Solving for p, Initial residual = 0.00305141, Final residual = 0.000150066, No Iterations 6
GAMG:  Solving for p, Initial residual = 0.00120784, Final residual = 5.82133e-05, No Iterations 18
time step continuity errors : sum local = 9.85453e-08, global = -9.52775e-09
GAMG:  Solving for p, Initial residual = 0.00952903, Final residual = 0.000328636, No Iterations 3
GAMG:  Solving for p, Initial residual = 0.00214514, Final residual = 9.44783e-05, No Iterations 8
GAMG:  Solving for p, Initial residual = 0.00097468, Final residual = 9.67626e-07, No Iterations 192
time step continuity errors : sum local = 1.63966e-09, global = -1.69502e-10
PIMPLE: Iteration 2
smoothSolver:  Solving for Ux, Initial residual = 0.0160065, Final residual = 8.34522e-08, No Iterations 2
smoothSolver:  Solving for Uy, Initial residual = 0.00282651, Final residual = 3.71022e-08, No Iterations 3
smoothSolver:  Solving for Uz, Initial residual = 0.00559541, Final residual = 1.35405e-08, No Iterations 3
GAMG:  Solving for p, Initial residual = 0.0115056, Final residual = 0.000387774, No Iterations 3
GAMG:  Solving for p, Initial residual = 0.00256955, Final residual = 0.000127568, No Iterations 5
GAMG:  Solving for p, Initial residual = 0.00084532, Final residual = 4.20617e-05, No Iterations 9
time step continuity errors : sum local = 7.13853e-08, global = -3.52536e-09
GAMG:  Solving for p, Initial residual = 0.00802421, Final residual = 0.000273319, No Iterations 3
GAMG:  Solving for p, Initial residual = 0.00177259, Final residual = 7.47097e-05, No Iterations 6
GAMG:  Solving for p, Initial residual = 0.000605105, Final residual = 9.64133e-07, No Iterations 106
time step continuity errors : sum local = 1.63654e-09, global = -1.56444e-10, cumulative = -8.71722e-10
smoothSolver:  Solving for omega, Initial residual = 0.0231624, Final residual = 5.14447e-08, No Iterations 2
smoothSolver:  Solving for k, Initial residual = 0.845308, Final residual = 6.84167e-08, No Iterations 3
ExecutionTime = 161.809 s  ClockTime = 165 s

Courant Number mean: 0.0312609 max: 4.98289
deltaT = 0.329753
Time = 3.834551s

PIMPLE: Iteration 1
smoothSolver:  Solving for Ux, Initial residual = 0.0499747, Final residual = 2.33776e-05, No Iterations 1
smoothSolver:  Solving for Uy, Initial residual = 0.00872101, Final residual = 4.11697e-05, No Iterations 1
smoothSolver:  Solving for Uz, Initial residual = 0.016159, Final residual = 4.6939e-05, No Iterations 1
GAMG:  Solving for p, Initial residual = 0.011483, Final residual = 0.000407118, No Iterations 3
GAMG:  Solving for p, Initial residual = 0.00243433, Final residual = 0.00010657, No Iterations 7
GAMG:  Solving for p, Initial residual = 0.000961156, Final residual = 4.75449e-05, No Iterations 8
time step continuity errors : sum local = 8.09099e-08, global = 4.30195e-09
GAMG:  Solving for p, Initial residual = 0.0080259, Final residual = 0.000286963, No Iterations 3
GAMG:  Solving for p, Initial residual = 0.00168445, Final residual = 7.96494e-05, No Iterations 7
GAMG:  Solving for p, Initial residual = 0.000683481, Final residual = 9.60367e-07, No Iterations 82
time step continuity errors : sum local = 1.63444e-09, global = 1.20779e-10
PIMPLE: Iteration 2
smoothSolver:  Solving for Ux, Initial residual = 0.0154033, Final residual = 7.94081e-08, No Iterations 2
smoothSolver:  Solving for Uy, Initial residual = 0.0028359, Final residual = 3.32798e-08, No Iterations 3
smoothSolver:  Solving for Uz, Initial residual = 0.00487834, Final residual = 1.12667e-08, No Iterations 3
GAMG:  Solving for p, Initial residual = 0.00976004, Final residual = 0.000360756, No Iterations 3
GAMG:  Solving for p, Initial residual = 0.00206957, Final residual = 0.000103331, No Iterations 7
GAMG:  Solving for p, Initial residual = 0.000850779, Final residual = 3.94223e-05, No Iterations 14
time step continuity errors : sum local = 6.70942e-08, global = 4.38627e-09
GAMG:  Solving for p, Initial residual = 0.00681947, Final residual = 0.000255123, No Iterations 3
GAMG:  Solving for p, Initial residual = 0.00142519, Final residual = 6.67863e-05, No Iterations 9
GAMG:  Solving for p, Initial residual = 0.000698176, Final residual = 9.99627e-07, No Iterations 156
time step continuity errors : sum local = 1.70018e-09, global = 1.74561e-10, cumulative = -6.9716e-10
smoothSolver:  Solving for omega, Initial residual = 0.0218507, Final residual = 4.8799e-08, No Iterations 2
smoothSolver:  Solving for k, Initial residual = 0.841189, Final residual = 6.7388e-08, No Iterations 3
ExecutionTime = 167.75 s  ClockTime = 171 s

Courant Number mean: 0.0317644 max: 5.00693
deltaT = 0.327415
Time = 4.161965s

PIMPLE: Iteration 1
smoothSolver:  Solving for Ux, Initial residual = 0.0477496, Final residual = 2.21534e-05, No Iterations 1
smoothSolver:  Solving for Uy, Initial residual = 0.00831659, Final residual = 3.79153e-05, No Iterations 1
smoothSolver:  Solving for Uz, Initial residual = 0.0141236, Final residual = 3.97751e-05, No Iterations 1
GAMG:  Solving for p, Initial residual = 0.0101728, Final residual = 0.000408082, No Iterations 3
GAMG:  Solving for p, Initial residual = 0.0021499, Final residual = 0.00010058, No Iterations 9
GAMG:  Solving for p, Initial residual = 0.000840153, Final residual = 4.03079e-05, No Iterations 12
time step continuity errors : sum local = 6.78183e-08, global = 4.48877e-09
GAMG:  Solving for p, Initial residual = 0.00712445, Final residual = 0.00028977, No Iterations 3
GAMG:  Solving for p, Initial residual = 0.00148999, Final residual = 6.08418e-05, No Iterations 11
GAMG:  Solving for p, Initial residual = 0.000626116, Final residual = 9.67198e-07, No Iterations 132
time step continuity errors : sum local = 1.62645e-09, global = 1.61919e-10
PIMPLE: Iteration 2
smoothSolver:  Solving for Ux, Initial residual = 0.0147197, Final residual = 7.3832e-08, No Iterations 2
smoothSolver:  Solving for Uy, Initial residual = 0.00271459, Final residual = 2.9072e-08, No Iterations 3
smoothSolver:  Solving for Uz, Initial residual = 0.00432963, Final residual = 9.68429e-09, No Iterations 3
GAMG:  Solving for p, Initial residual = 0.00868188, Final residual = 0.000372228, No Iterations 3
GAMG:  Solving for p, Initial residual = 0.00187426, Final residual = 9.18353e-05, No Iterations 13
GAMG:  Solving for p, Initial residual = 0.00147327, Final residual = 6.92755e-05, No Iterations 6
time step continuity errors : sum local = 1.16289e-07, global = 9.40116e-09
GAMG:  Solving for p, Initial residual = 0.00611334, Final residual = 0.000275345, No Iterations 3
GAMG:  Solving for p, Initial residual = 0.00132112, Final residual = 6.58868e-05, No Iterations 15
GAMG:  Solving for p, Initial residual = 0.00123911, Final residual = 9.65659e-07, No Iterations 178
time step continuity errors : sum local = 1.61949e-09, global = 1.66541e-10, cumulative = -5.30619e-10
smoothSolver:  Solving for omega, Initial residual = 0.0204761, Final residual = 4.50114e-08, No Iterations 2
smoothSolver:  Solving for k, Initial residual = 0.83465, Final residual = 6.4871e-08, No Iterations 3
ExecutionTime = 175.183 s  ClockTime = 179 s

Courant Number mean: 0.0320236 max: 4.99902
deltaT = 0.327415
Time = 4.48938s

PIMPLE: Iteration 1
smoothSolver:  Solving for Ux, Initial residual = 0.0459385, Final residual = 2.13188e-05, No Iterations 1
smoothSolver:  Solving for Uy, Initial residual = 0.00793294, Final residual = 3.56256e-05, No Iterations 1
smoothSolver:  Solving for Uz, Initial residual = 0.0126804, Final residual = 3.51043e-05, No Iterations 1
GAMG:  Solving for p, Initial residual = 0.00866451, Final residual = 0.000335263, No Iterations 4
GAMG:  Solving for p, Initial residual = 0.00193093, Final residual = 8.97386e-05, No Iterations 16
GAMG:  Solving for p, Initial residual = 0.00131968, Final residual = 6.34237e-05, No Iterations 10
time step continuity errors : sum local = 1.05955e-07, global = 7.85639e-09
GAMG:  Solving for p, Initial residual = 0.00610072, Final residual = 0.00024729, No Iterations 4
GAMG:  Solving for p, Initial residual = 0.00136543, Final residual = 6.53769e-05, No Iterations 18
GAMG:  Solving for p, Initial residual = 0.00113995, Final residual = 9.91475e-07, No Iterations 170
time step continuity errors : sum local = 1.6543e-09, global = 1.69112e-10
PIMPLE: Iteration 2
smoothSolver:  Solving for Ux, Initial residual = 0.0141493, Final residual = 7.00801e-08, No Iterations 2
smoothSolver:  Solving for Uy, Initial residual = 0.00262096, Final residual = 2.64718e-08, No Iterations 3
smoothSolver:  Solving for Uz, Initial residual = 0.003926, Final residual = 8.59218e-09, No Iterations 3
GAMG:  Solving for p, Initial residual = 0.00744931, Final residual = 0.000323855, No Iterations 4
GAMG:  Solving for p, Initial residual = 0.00192229, Final residual = 9.51707e-05, No Iterations 18
GAMG:  Solving for p, Initial residual = 0.00204257, Final residual = 8.48558e-05, No Iterations 6
time step continuity errors : sum local = 1.41148e-07, global = 1.21698e-08
GAMG:  Solving for p, Initial residual = 0.00527926, Final residual = 0.00024951, No Iterations 4
GAMG:  Solving for p, Initial residual = 0.0014113, Final residual = 6.77374e-05, No Iterations 22
GAMG:  Solving for p, Initial residual = 0.00181698, Final residual = 9.60447e-07, No Iterations 188
time step continuity errors : sum local = 1.59505e-09, global = 1.64155e-10, cumulative = -3.66464e-10
smoothSolver:  Solving for omega, Initial residual = 0.0193147, Final residual = 4.2485e-08, No Iterations 2
smoothSolver:  Solving for k, Initial residual = 0.830422, Final residual = 6.37915e-08, No Iterations 3
ExecutionTime = 184.002 s  ClockTime = 188 s

Courant Number mean: 0.0324933 max: 5.02716
deltaT = 0.325076
Time = 4.814456s

PIMPLE: Iteration 1
smoothSolver:  Solving for Ux, Initial residual = 0.043827, Final residual = 2.0164e-05, No Iterations 1
smoothSolver:  Solving for Uy, Initial residual = 0.00766904, Final residual = 3.33715e-05, No Iterations 1
smoothSolver:  Solving for Uz, Initial residual = 0.0114401, Final residual = 3.06755e-05, No Iterations 1
GAMG:  Solving for p, Initial residual = 0.00782424, Final residual = 0.000367846, No Iterations 4
GAMG:  Solving for p, Initial residual = 0.00191502, Final residual = 8.86182e-05, No Iterations 20
GAMG:  Solving for p, Initial residual = 0.00169335, Final residual = 7.60332e-05, No Iterations 6
time step continuity errors : sum local = 1.24438e-07, global = 9.96178e-09
GAMG:  Solving for p, Initial residual = 0.00552145, Final residual = 0.000275511, No Iterations 4
GAMG:  Solving for p, Initial residual = 0.00137696, Final residual = 6.54855e-05, No Iterations 22
GAMG:  Solving for p, Initial residual = 0.00146995, Final residual = 9.94396e-07, No Iterations 176
time step continuity errors : sum local = 1.6253e-09, global = 1.66465e-10
PIMPLE: Iteration 2
smoothSolver:  Solving for Ux, Initial residual = 0.013497, Final residual = 6.50153e-08, No Iterations 2
smoothSolver:  Solving for Uy, Initial residual = 0.00256046, Final residual = 2.37217e-08, No Iterations 3
smoothSolver:  Solving for Uz, Initial residual = 0.00356326, Final residual = 7.6956e-09, No Iterations 3
GAMG:  Solving for p, Initial residual = 0.0067489, Final residual = 0.000332427, No Iterations 6
GAMG:  Solving for p, Initial residual = 0.00243166, Final residual = 0.000115891, No Iterations 14
GAMG:  Solving for p, Initial residual = 0.00162035, Final residual = 7.67864e-05, No Iterations 14
time step continuity errors : sum local = 1.25056e-07, global = 1.02798e-08
GAMG:  Solving for p, Initial residual = 0.00480554, Final residual = 0.000205502, No Iterations 8
GAMG:  Solving for p, Initial residual = 0.0020102, Final residual = 0.000100399, No Iterations 10
GAMG:  Solving for p, Initial residual = 0.000982797, Final residual = 9.81715e-07, No Iterations 196
time step continuity errors : sum local = 1.59636e-09, global = 1.64176e-10, cumulative = -2.02288e-10
smoothSolver:  Solving for omega, Initial residual = 0.0181085, Final residual = 3.91154e-08, No Iterations 2
smoothSolver:  Solving for k, Initial residual = 0.825408, Final residual = 6.10369e-08, No Iterations 3
ExecutionTime = 193.01 s  ClockTime = 197 s

Courant Number mean: 0.0327091 max: 5.01913
deltaT = 0.322754
Time = 5.13721s

PIMPLE: Iteration 1
smoothSolver:  Solving for Ux, Initial residual = 0.0418295, Final residual = 1.90283e-05, No Iterations 1
smoothSolver:  Solving for Uy, Initial residual = 0.0076241, Final residual = 3.14116e-05, No Iterations 1
smoothSolver:  Solving for Uz, Initial residual = 0.0104352, Final residual = 2.66902e-05, No Iterations 1
GAMG:  Solving for p, Initial residual = 0.00750407, Final residual = 0.000367684, No Iterations 6
GAMG:  Solving for p, Initial residual = 0.00225255, Final residual = 0.000108039, No Iterations 18
GAMG:  Solving for p, Initial residual = 0.00167285, Final residual = 8.3427e-05, No Iterations 8
time step continuity errors : sum local = 1.33365e-07, global = 1.0751e-08
GAMG:  Solving for p, Initial residual = 0.00531636, Final residual = 0.00022423, No Iterations 8
GAMG:  Solving for p, Initial residual = 0.00183623, Final residual = 8.68649e-05, No Iterations 16
GAMG:  Solving for p, Initial residual = 0.00114832, Final residual = 9.74287e-07, No Iterations 188
time step continuity errors : sum local = 1.5549e-09, global = 1.59481e-10
PIMPLE: Iteration 2
smoothSolver:  Solving for Ux, Initial residual = 0.0128749, Final residual = 6.01024e-08, No Iterations 2
smoothSolver:  Solving for Uy, Initial residual = 0.0025599, Final residual = 2.13335e-08, No Iterations 3
smoothSolver:  Solving for Uz, Initial residual = 0.00326194, Final residual = 7.01478e-09, No Iterations 3
GAMG:  Solving for p, Initial residual = 0.00653783, Final residual = 0.000302422, No Iterations 8
GAMG:  Solving for p, Initial residual = 0.00293126, Final residual = 0.000144858, No Iterations 10
GAMG:  Solving for p, Initial residual = 0.00142136, Final residual = 6.82821e-05, No Iterations 24
time step continuity errors : sum local = 1.08794e-07, global = 9.62969e-09
GAMG:  Solving for p, Initial residual = 0.00472604, Final residual = 0.000229755, No Iterations 8
GAMG:  Solving for p, Initial residual = 0.00216229, Final residual = 0.00010352, No Iterations 12
GAMG:  Solving for p, Initial residual = 0.00118033, Final residual = 9.70192e-07, No Iterations 200
time step continuity errors : sum local = 1.54248e-09, global = 1.58974e-10, cumulative = -4.33149e-11
smoothSolver:  Solving for omega, Initial residual = 0.0169848, Final residual = 3.58257e-08, No Iterations 2
smoothSolver:  Solving for k, Initial residual = 0.820632, Final residual = 5.87915e-08, No Iterations 3
ExecutionTime = 202.427 s  ClockTime = 206 s

Courant Number mean: 0.0329018 max: 5.01116
deltaT = 0.320449
Time = 5.457658s

PIMPLE: Iteration 1
smoothSolver:  Solving for Ux, Initial residual = 0.0399186, Final residual = 1.78854e-05, No Iterations 1
smoothSolver:  Solving for Uy, Initial residual = 0.00773416, Final residual = 2.96325e-05, No Iterations 1
smoothSolver:  Solving for Uz, Initial residual = 0.00960957, Final residual = 2.32028e-05, No Iterations 1
GAMG:  Solving for p, Initial residual = 0.00738829, Final residual = 0.000331478, No Iterations 8
GAMG:  Solving for p, Initial residual = 0.00265954, Final residual = 0.00012545, No Iterations 16
GAMG:  Solving for p, Initial residual = 0.00166027, Final residual = 8.07472e-05, No Iterations 14
time step continuity errors : sum local = 1.26107e-07, global = 1.02558e-08
GAMG:  Solving for p, Initial residual = 0.00526471, Final residual = 0.000253677, No Iterations 8
GAMG:  Solving for p, Initial residual = 0.00201326, Final residual = 9.78463e-05, No Iterations 16
GAMG:  Solving for p, Initial residual = 0.00132064, Final residual = 9.87935e-07, No Iterations 194
time step continuity errors : sum local = 1.54017e-09, global = 1.5839e-10
PIMPLE: Iteration 2
smoothSolver:  Solving for Ux, Initial residual = 0.0122739, Final residual = 5.55222e-08, No Iterations 2
smoothSolver:  Solving for Uy, Initial residual = 0.00259341, Final residual = 1.93259e-08, No Iterations 3
smoothSolver:  Solving for Uz, Initial residual = 0.00306563, Final residual = 6.61759e-09, No Iterations 3
GAMG:  Solving for p, Initial residual = 0.00656123, Final residual = 0.000267171, No Iterations 10
GAMG:  Solving for p, Initial residual = 0.00338405, Final residual = 0.000161136, No Iterations 8
GAMG:  Solving for p, Initial residual = 0.00140159, Final residual = 6.8825e-05, No Iterations 28
time step continuity errors : sum local = 1.06854e-07, global = 9.58946e-09
GAMG:  Solving for p, Initial residual = 0.00485685, Final residual = 0.000203045, No Iterations 10
GAMG:  Solving for p, Initial residual = 0.00250333, Final residual = 0.000123225, No Iterations 8
GAMG:  Solving for p, Initial residual = 0.00105621, Final residual = 9.82103e-07, No Iterations 206
time step continuity errors : sum local = 1.52144e-09, global = 1.56781e-10, cumulative = 1.13466e-10
smoothSolver:  Solving for omega, Initial residual = 0.0159421, Final residual = 3.27669e-08, No Iterations 2
smoothSolver:  Solving for k, Initial residual = 0.696825, Final residual = 4.79426e-08, No Iterations 3
ExecutionTime = 212.169 s  ClockTime = 216 s

Courant Number mean: 0.0330712 max: 5.00373
deltaT = 0.31816
Time = 5.775818s

PIMPLE: Iteration 1
smoothSolver:  Solving for Ux, Initial residual = 0.0380832, Final residual = 1.6848e-05, No Iterations 1
smoothSolver:  Solving for Uy, Initial residual = 0.00789606, Final residual = 2.79823e-05, No Iterations 1
smoothSolver:  Solving for Uz, Initial residual = 0.00912924, Final residual = 2.02632e-05, No Iterations 1
GAMG:  Solving for p, Initial residual = 0.00736368, Final residual = 0.000360197, No Iterations 8
GAMG:  Solving for p, Initial residual = 0.00286428, Final residual = 0.000139439, No Iterations 16
GAMG:  Solving for p, Initial residual = 0.00187078, Final residual = 9.0813e-05, No Iterations 14
time step continuity errors : sum local = 1.381e-07, global = 1.13328e-08
GAMG:  Solving for p, Initial residual = 0.0052878, Final residual = 0.000222901, No Iterations 10
GAMG:  Solving for p, Initial residual = 0.00235113, Final residual = 0.000110718, No Iterations 14
GAMG:  Solving for p, Initial residual = 0.00132209, Final residual = 9.95271e-07, No Iterations 200
time step continuity errors : sum local = 1.51023e-09, global = 1.55363e-10
PIMPLE: Iteration 2
smoothSolver:  Solving for Ux, Initial residual = 0.011701, Final residual = 5.11651e-08, No Iterations 2
smoothSolver:  Solving for Uy, Initial residual = 0.00262796, Final residual = 1.7495e-08, No Iterations 3
smoothSolver:  Solving for Uz, Initial residual = 0.00294314, Final residual = 6.30144e-09, No Iterations 3
GAMG:  Solving for p, Initial residual = 0.00667438, Final residual = 0.000284554, No Iterations 10
GAMG:  Solving for p, Initial residual = 0.0035825, Final residual = 0.000173922, No Iterations 8
GAMG:  Solving for p, Initial residual = 0.0015031, Final residual = 7.14078e-05, No Iterations 30
time step continuity errors : sum local = 1.07858e-07, global = 9.7718e-09
GAMG:  Solving for p, Initial residual = 0.00512705, Final residual = 0.000215988, No Iterations 10
GAMG:  Solving for p, Initial residual = 0.00265404, Final residual = 0.00012438, No Iterations 10
GAMG:  Solving for p, Initial residual = 0.00122911, Final residual = 9.94212e-07, No Iterations 208
time step continuity errors : sum local = 1.49769e-09, global = 1.54233e-10, cumulative = 2.67699e-10
smoothSolver:  Solving for omega, Initial residual = 0.0149757, Final residual = 2.99693e-08, No Iterations 2
smoothSolver:  Solving for k, Initial residual = 0.547525, Final residual = 3.65055e-08, No Iterations 3
ExecutionTime = 222.768 s  ClockTime = 226 s

Courant Number mean: 0.0332182 max: 4.99694
deltaT = 0.31816
Time = 6.093977s

PIMPLE: Iteration 1
smoothSolver:  Solving for Ux, Initial residual = 0.0365736, Final residual = 1.61409e-05, No Iterations 1
smoothSolver:  Solving for Uy, Initial residual = 0.00805249, Final residual = 2.68753e-05, No Iterations 1
smoothSolver:  Solving for Uz, Initial residual = 0.00886005, Final residual = 1.81116e-05, No Iterations 1
GAMG:  Solving for p, Initial residual = 0.00758188, Final residual = 0.00032935, No Iterations 10
GAMG:  Solving for p, Initial residual = 0.00359022, Final residual = 0.000176915, No Iterations 12
GAMG:  Solving for p, Initial residual = 0.00184959, Final residual = 8.94306e-05, No Iterations 22
time step continuity errors : sum local = 1.33628e-07, global = 1.15546e-08
GAMG:  Solving for p, Initial residual = 0.00567479, Final residual = 0.000251595, No Iterations 10
GAMG:  Solving for p, Initial residual = 0.00271705, Final residual = 0.000127992, No Iterations 14
GAMG:  Solving for p, Initial residual = 0.00155845, Final residual = 9.91526e-07, No Iterations 208
time step continuity errors : sum local = 1.47737e-09, global = 1.51986e-10
PIMPLE: Iteration 2
smoothSolver:  Solving for Ux, Initial residual = 0.0112238, Final residual = 4.84905e-08, No Iterations 2
smoothSolver:  Solving for Uy, Initial residual = 0.00266927, Final residual = 1.6269e-08, No Iterations 3
smoothSolver:  Solving for Uz, Initial residual = 0.00285378, Final residual = 6.14319e-09, No Iterations 3
GAMG:  Solving for p, Initial residual = 0.00701671, Final residual = 0.000313499, No Iterations 10
GAMG:  Solving for p, Initial residual = 0.00398871, Final residual = 0.000194969, No Iterations 8
GAMG:  Solving for p, Initial residual = 0.00169293, Final residual = 8.09737e-05, No Iterations 30
time step continuity errors : sum local = 1.20004e-07, global = 1.08758e-08
GAMG:  Solving for p, Initial residual = 0.00549631, Final residual = 0.000238161, No Iterations 10
GAMG:  Solving for p, Initial residual = 0.00296495, Final residual = 0.00013986, No Iterations 10
GAMG:  Solving for p, Initial residual = 0.00138761, Final residual = 9.92502e-07, No Iterations 214
time step continuity errors : sum local = 1.46646e-09, global = 1.50841e-10, cumulative = 4.1854e-10
smoothSolver:  Solving for omega, Initial residual = 0.0141725, Final residual = 2.81004e-08, No Iterations 2
smoothSolver:  Solving for k, Initial residual = 0.444721, Final residual = 2.91034e-08, No Iterations 3
ExecutionTime = 233.247 s  ClockTime = 237 s

Courant Number mean: 0.0335849 max: 5.02637
deltaT = 0.315871
Time = 6.409848s

PIMPLE: Iteration 1
smoothSolver:  Solving for Ux, Initial residual = 0.0348318, Final residual = 1.52424e-05, No Iterations 1
smoothSolver:  Solving for Uy, Initial residual = 0.00814361, Final residual = 2.55117e-05, No Iterations 1
smoothSolver:  Solving for Uz, Initial residual = 0.00856863, Final residual = 1.64224e-05, No Iterations 1
GAMG:  Solving for p, Initial residual = 0.00778817, Final residual = 0.000324104, No Iterations 10
GAMG:  Solving for p, Initial residual = 0.00350318, Final residual = 0.000165645, No Iterations 14
GAMG:  Solving for p, Initial residual = 0.00199234, Final residual = 9.6503e-05, No Iterations 18
time step continuity errors : sum local = 1.40045e-07, global = 1.19822e-08
GAMG:  Solving for p, Initial residual = 0.00576683, Final residual = 0.000249217, No Iterations 10
GAMG:  Solving for p, Initial residual = 0.00269552, Final residual = 0.000128985, No Iterations 14
GAMG:  Solving for p, Initial residual = 0.00156488, Final residual = 9.7165e-07, No Iterations 210
time step continuity errors : sum local = 1.40669e-09, global = 1.44531e-10
PIMPLE: Iteration 2
smoothSolver:  Solving for Ux, Initial residual = 0.0106786, Final residual = 4.49828e-08, No Iterations 2
smoothSolver:  Solving for Uy, Initial residual = 0.0026835, Final residual = 1.4866e-08, No Iterations 3
smoothSolver:  Solving for Uz, Initial residual = 0.00276975, Final residual = 9.90152e-08, No Iterations 2
GAMG:  Solving for p, Initial residual = 0.00718182, Final residual = 0.000311707, No Iterations 10
GAMG:  Solving for p, Initial residual = 0.00394822, Final residual = 0.00019471, No Iterations 8
GAMG:  Solving for p, Initial residual = 0.00167756, Final residual = 8.1654e-05, No Iterations 30
time step continuity errors : sum local = 1.17636e-07, global = 1.06814e-08
GAMG:  Solving for p, Initial residual = 0.00564378, Final residual = 0.000237227, No Iterations 10
GAMG:  Solving for p, Initial residual = 0.00294775, Final residual = 0.000140236, No Iterations 10
GAMG:  Solving for p, Initial residual = 0.00138088, Final residual = 9.63498e-07, No Iterations 216
time step continuity errors : sum local = 1.38386e-09, global = 1.42243e-10, cumulative = 5.60783e-10
smoothSolver:  Solving for omega, Initial residual = 0.013335, Final residual = 2.5792e-08, No Iterations 2
smoothSolver:  Solving for k, Initial residual = 0.368555, Final residual = 2.30885e-08, No Iterations 3
ExecutionTime = 243.848 s  ClockTime = 247 s

Courant Number mean: 0.0336904 max: 5.01974
deltaT = 0.313598
Time = 6.723446s

PIMPLE: Iteration 1
smoothSolver:  Solving for Ux, Initial residual = 0.0331893, Final residual = 1.43555e-05, No Iterations 1
smoothSolver:  Solving for Uy, Initial residual = 0.00817155, Final residual = 2.42366e-05, No Iterations 1
smoothSolver:  Solving for Uz, Initial residual = 0.0083451, Final residual = 1.58579e-05, No Iterations 1
GAMG:  Solving for p, Initial residual = 0.00795459, Final residual = 0.000337107, No Iterations 10
GAMG:  Solving for p, Initial residual = 0.0036518, Final residual = 0.000175132, No Iterations 14
GAMG:  Solving for p, Initial residual = 0.0021156, Final residual = 0.000102727, No Iterations 18
time step continuity errors : sum local = 1.44626e-07, global = 1.24134e-08
GAMG:  Solving for p, Initial residual = 0.00591684, Final residual = 0.000259675, No Iterations 10
GAMG:  Solving for p, Initial residual = 0.00283155, Final residual = 0.000136624, No Iterations 14
GAMG:  Solving for p, Initial residual = 0.00166221, Final residual = 9.99644e-07, No Iterations 212
time step continuity errors : sum local = 1.40381e-09, global = 1.44105e-10
PIMPLE: Iteration 2
smoothSolver:  Solving for Ux, Initial residual = 0.010161, Final residual = 4.15875e-08, No Iterations 2
smoothSolver:  Solving for Uy, Initial residual = 0.00268243, Final residual = 1.36065e-08, No Iterations 3
smoothSolver:  Solving for Uz, Initial residual = 0.00269601, Final residual = 9.45839e-08, No Iterations 2
GAMG:  Solving for p, Initial residual = 0.00737407, Final residual = 0.000323536, No Iterations 10
GAMG:  Solving for p, Initial residual = 0.00408123, Final residual = 0.00020338, No Iterations 8
GAMG:  Solving for p, Initial residual = 0.00174511, Final residual = 8.57961e-05, No Iterations 30
time step continuity errors : sum local = 1.19923e-07, global = 1.08856e-08
GAMG:  Solving for p, Initial residual = 0.00582493, Final residual = 0.000246589, No Iterations 10
GAMG:  Solving for p, Initial residual = 0.00306606, Final residual = 0.000146877, No Iterations 10
GAMG:  Solving for p, Initial residual = 0.00144142, Final residual = 9.72593e-07, No Iterations 218
time step continuity errors : sum local = 1.35513e-09, global = 1.39169e-10, cumulative = 6.99952e-10
smoothSolver:  Solving for omega, Initial residual = 0.0125562, Final residual = 2.36104e-08, No Iterations 2
smoothSolver:  Solving for k, Initial residual = 0.3114, Final residual = 1.8925e-08, No Iterations 3
ExecutionTime = 255.952 s  ClockTime = 259 s

Courant Number mean: 0.0337766 max: 5.01292
deltaT = 0.311342
Time = 7.034788s

PIMPLE: Iteration 1
smoothSolver:  Solving for Ux, Initial residual = 0.0316084, Final residual = 1.34767e-05, No Iterations 1
smoothSolver:  Solving for Uy, Initial residual = 0.00816897, Final residual = 2.30932e-05, No Iterations 1
smoothSolver:  Solving for Uz, Initial residual = 0.0081525, Final residual = 1.60338e-05, No Iterations 1
GAMG:  Solving for p, Initial residual = 0.00828211, Final residual = 0.000353129, No Iterations 10
GAMG:  Solving for p, Initial residual = 0.0038192, Final residual = 0.000183917, No Iterations 14
GAMG:  Solving for p, Initial residual = 0.00223847, Final residual = 0.000108461, No Iterations 18
time step continuity errors : sum local = 1.48055e-07, global = 1.27249e-08
GAMG:  Solving for p, Initial residual = 0.00617919, Final residual = 0.000272343, No Iterations 10
GAMG:  Solving for p, Initial residual = 0.00297781, Final residual = 0.000143602, No Iterations 14
GAMG:  Solving for p, Initial residual = 0.00175882, Final residual = 9.72755e-07, No Iterations 216
time step continuity errors : sum local = 1.32432e-09, global = 1.35873e-10
PIMPLE: Iteration 2
smoothSolver:  Solving for Ux, Initial residual = 0.00966577, Final residual = 3.84532e-08, No Iterations 2
smoothSolver:  Solving for Uy, Initial residual = 0.00267502, Final residual = 1.24815e-08, No Iterations 3
smoothSolver:  Solving for Uz, Initial residual = 0.00264127, Final residual = 9.12206e-08, No Iterations 2
GAMG:  Solving for p, Initial residual = 0.00768719, Final residual = 0.000337717, No Iterations 10
GAMG:  Solving for p, Initial residual = 0.00421713, Final residual = 0.00019926, No Iterations 10
GAMG:  Solving for p, Initial residual = 0.00198585, Final residual = 9.53118e-05, No Iterations 26
time step continuity errors : sum local = 1.29082e-07, global = 1.16598e-08
GAMG:  Solving for p, Initial residual = 0.00598199, Final residual = 0.000258812, No Iterations 10
GAMG:  Solving for p, Initial residual = 0.00319593, Final residual = 0.000153836, No Iterations 10
GAMG:  Solving for p, Initial residual = 0.0015151, Final residual = 9.79826e-07, No Iterations 220
time step continuity errors : sum local = 1.32322e-09, global = 1.35849e-10, cumulative = 8.35801e-10
smoothSolver:  Solving for omega, Initial residual = 0.0118345, Final residual = 2.1542e-08, No Iterations 2
smoothSolver:  Solving for k, Initial residual = 0.267224, Final residual = 1.54861e-08, No Iterations 3
ExecutionTime = 266.586 s  ClockTime = 270 s

Courant Number mean: 0.0338446 max: 5.00564
deltaT = 0.309102
Time = 7.34389s

PIMPLE: Iteration 1
smoothSolver:  Solving for Ux, Initial residual = 0.0300932, Final residual = 1.26728e-05, No Iterations 1
smoothSolver:  Solving for Uy, Initial residual = 0.00815885, Final residual = 2.20545e-05, No Iterations 1
smoothSolver:  Solving for Uz, Initial residual = 0.00801796, Final residual = 1.63994e-05, No Iterations 1
GAMG:  Solving for p, Initial residual = 0.00854465, Final residual = 0.000368383, No Iterations 10
GAMG:  Solving for p, Initial residual = 0.00395929, Final residual = 0.000191756, No Iterations 14
GAMG:  Solving for p, Initial residual = 0.0023467, Final residual = 0.000113609, No Iterations 18
time step continuity errors : sum local = 1.50198e-07, global = 1.29292e-08
GAMG:  Solving for p, Initial residual = 0.00639444, Final residual = 0.000284614, No Iterations 10
GAMG:  Solving for p, Initial residual = 0.00309775, Final residual = 0.000149841, No Iterations 14
GAMG:  Solving for p, Initial residual = 0.00184395, Final residual = 9.78893e-07, No Iterations 218
time step continuity errors : sum local = 1.29055e-09, global = 1.32379e-10
PIMPLE: Iteration 2
smoothSolver:  Solving for Ux, Initial residual = 0.00919585, Final residual = 3.55426e-08, No Iterations 2
smoothSolver:  Solving for Uy, Initial residual = 0.00266797, Final residual = 1.1457e-08, No Iterations 3
smoothSolver:  Solving for Uz, Initial residual = 0.0026221, Final residual = 8.80013e-08, No Iterations 2
GAMG:  Solving for p, Initial residual = 0.00797419, Final residual = 0.000350833, No Iterations 10
GAMG:  Solving for p, Initial residual = 0.00434414, Final residual = 0.000206426, No Iterations 10
GAMG:  Solving for p, Initial residual = 0.00206399, Final residual = 9.90526e-05, No Iterations 26
time step continuity errors : sum local = 1.29868e-07, global = 1.17271e-08
GAMG:  Solving for p, Initial residual = 0.00621905, Final residual = 0.000269199, No Iterations 10
GAMG:  Solving for p, Initial residual = 0.00329655, Final residual = 0.000159469, No Iterations 10
GAMG:  Solving for p, Initial residual = 0.0015756, Final residual = 9.75871e-07, No Iterations 222
time step continuity errors : sum local = 1.27569e-09, global = 1.30929e-10, cumulative = 9.6673e-10
smoothSolver:  Solving for omega, Initial residual = 0.0111658, Final residual = 1.9698e-08, No Iterations 2
smoothSolver:  Solving for k, Initial residual = 0.232163, Final residual = 1.30296e-08, No Iterations 3
ExecutionTime = 277.324 s  ClockTime = 281 s

Courant Number mean: 0.0338958 max: 4.99779
deltaT = 0.309102
Time = 7.652993s

PIMPLE: Iteration 1
smoothSolver:  Solving for Ux, Initial residual = 0.0288468, Final residual = 1.21243e-05, No Iterations 1
smoothSolver:  Solving for Uy, Initial residual = 0.00820966, Final residual = 2.14283e-05, No Iterations 1
smoothSolver:  Solving for Uz, Initial residual = 0.00803199, Final residual = 1.7027e-05, No Iterations 1
GAMG:  Solving for p, Initial residual = 0.00902537, Final residual = 0.000406555, No Iterations 10
GAMG:  Solving for p, Initial residual = 0.00447054, Final residual = 0.000211648, No Iterations 14
GAMG:  Solving for p, Initial residual = 0.00263686, Final residual = 0.000126311, No Iterations 18
time step continuity errors : sum local = 1.63245e-07, global = 1.40723e-08
GAMG:  Solving for p, Initial residual = 0.00677004, Final residual = 0.000314552, No Iterations 10
GAMG:  Solving for p, Initial residual = 0.00349136, Final residual = 0.000165425, No Iterations 14
GAMG:  Solving for p, Initial residual = 0.0020699, Final residual = 9.98879e-07, No Iterations 222
time step continuity errors : sum local = 1.28697e-09, global = 1.32017e-10
PIMPLE: Iteration 2
smoothSolver:  Solving for Ux, Initial residual = 0.00880566, Final residual = 3.37439e-08, No Iterations 2
smoothSolver:  Solving for Uy, Initial residual = 0.0026866, Final residual = 1.08434e-08, No Iterations 3
smoothSolver:  Solving for Uz, Initial residual = 0.00265901, Final residual = 8.72682e-08, No Iterations 2
GAMG:  Solving for p, Initial residual = 0.0084783, Final residual = 0.000380379, No Iterations 10
GAMG:  Solving for p, Initial residual = 0.00473575, Final residual = 0.000223701, No Iterations 10
GAMG:  Solving for p, Initial residual = 0.00226345, Final residual = 0.000107645, No Iterations 26
time step continuity errors : sum local = 1.37889e-07, global = 1.24444e-08
GAMG:  Solving for p, Initial residual = 0.00663123, Final residual = 0.000292038, No Iterations 10
GAMG:  Solving for p, Initial residual = 0.00359347, Final residual = 0.000172865, No Iterations 10
GAMG:  Solving for p, Initial residual = 0.00172776, Final residual = 9.7096e-07, No Iterations 226
time step continuity errors : sum local = 1.23977e-09, global = 1.27238e-10, cumulative = 1.09397e-09
smoothSolver:  Solving for omega, Initial residual = 0.0106157, Final residual = 1.85415e-08, No Iterations 2
smoothSolver:  Solving for k, Initial residual = 0.204553, Final residual = 1.12077e-08, No Iterations 3
ExecutionTime = 288.182 s  ClockTime = 292 s

Courant Number mean: 0.0341782 max: 5.02549
deltaT = 0.306862
Time = 7.959855s

PIMPLE: Iteration 1
smoothSolver:  Solving for Ux, Initial residual = 0.0274274, Final residual = 1.14034e-05, No Iterations 1
smoothSolver:  Solving for Uy, Initial residual = 0.0082385, Final residual = 2.05497e-05, No Iterations 1
smoothSolver:  Solving for Uz, Initial residual = 0.00810504, Final residual = 1.74443e-05, No Iterations 1
GAMG:  Solving for p, Initial residual = 0.00924396, Final residual = 0.000400968, No Iterations 10
GAMG:  Solving for p, Initial residual = 0.00438951, Final residual = 0.000208737, No Iterations 14
GAMG:  Solving for p, Initial residual = 0.00260125, Final residual = 0.000124798, No Iterations 18
time step continuity errors : sum local = 1.56009e-07, global = 1.34708e-08
GAMG:  Solving for p, Initial residual = 0.00693179, Final residual = 0.000310678, No Iterations 10
GAMG:  Solving for p, Initial residual = 0.00343553, Final residual = 0.000163297, No Iterations 14
GAMG:  Solving for p, Initial residual = 0.00204197, Final residual = 9.91506e-07, No Iterations 222
time step continuity errors : sum local = 1.2357e-09, global = 1.26724e-10
PIMPLE: Iteration 2
smoothSolver:  Solving for Ux, Initial residual = 0.00837008, Final residual = 3.12982e-08, No Iterations 2
smoothSolver:  Solving for Uy, Initial residual = 0.0026827, Final residual = 1.00272e-08, No Iterations 3
smoothSolver:  Solving for Uz, Initial residual = 0.00269683, Final residual = 8.48443e-08, No Iterations 2
GAMG:  Solving for p, Initial residual = 0.00865493, Final residual = 0.000378279, No Iterations 10
GAMG:  Solving for p, Initial residual = 0.00470559, Final residual = 0.000222236, No Iterations 10
GAMG:  Solving for p, Initial residual = 0.00225198, Final residual = 0.00010733, No Iterations 26
time step continuity errors : sum local = 1.32972e-07, global = 1.2013e-08
GAMG:  Solving for p, Initial residual = 0.00678229, Final residual = 0.000290835, No Iterations 10
GAMG:  Solving for p, Initial residual = 0.00357235, Final residual = 0.00017186, No Iterations 10
GAMG:  Solving for p, Initial residual = 0.00171879, Final residual = 9.7136e-07, No Iterations 226
time step continuity errors : sum local = 1.19958e-09, global = 1.23081e-10, cumulative = 1.21705e-09
smoothSolver:  Solving for omega, Initial residual = 0.0100357, Final residual = 1.70937e-08, No Iterations 2
smoothSolver:  Solving for k, Initial residual = 0.180522, Final residual = 9.68486e-09, No Iterations 3
ExecutionTime = 298.969 s  ClockTime = 303 s

Courant Number mean: 0.0342033 max: 5.01629
deltaT = 0.304639
Time = 8.264494s

PIMPLE: Iteration 1
smoothSolver:  Solving for Ux, Initial residual = 0.0260978, Final residual = 1.07091e-05, No Iterations 1
smoothSolver:  Solving for Uy, Initial residual = 0.00820924, Final residual = 1.96752e-05, No Iterations 1
smoothSolver:  Solving for Uz, Initial residual = 0.00820146, Final residual = 1.7528e-05, No Iterations 1
GAMG:  Solving for p, Initial residual = 0.00920824, Final residual = 0.000411847, No Iterations 10
GAMG:  Solving for p, Initial residual = 0.00457677, Final residual = 0.000216568, No Iterations 14
GAMG:  Solving for p, Initial residual = 0.00271511, Final residual = 0.000129957, No Iterations 18
time step continuity errors : sum local = 1.56785e-07, global = 1.35571e-08
GAMG:  Solving for p, Initial residual = 0.00695105, Final residual = 0.000319483, No Iterations 10
GAMG:  Solving for p, Initial residual = 0.0035842, Final residual = 0.000169595, No Iterations 14
GAMG:  Solving for p, Initial residual = 0.00213078, Final residual = 9.92613e-07, No Iterations 224
time step continuity errors : sum local = 1.19374e-09, global = 1.22396e-10
PIMPLE: Iteration 2
smoothSolver:  Solving for Ux, Initial residual = 0.00795799, Final residual = 2.89258e-08, No Iterations 2
smoothSolver:  Solving for Uy, Initial residual = 0.00266223, Final residual = 9.25414e-09, No Iterations 3
smoothSolver:  Solving for Uz, Initial residual = 0.00272552, Final residual = 8.19405e-08, No Iterations 2
GAMG:  Solving for p, Initial residual = 0.00873103, Final residual = 0.000387154, No Iterations 10
GAMG:  Solving for p, Initial residual = 0.00486875, Final residual = 0.000229243, No Iterations 10
GAMG:  Solving for p, Initial residual = 0.00232953, Final residual = 0.000110969, No Iterations 26
time step continuity errors : sum local = 1.32637e-07, global = 1.19876e-08
GAMG:  Solving for p, Initial residual = 0.00690411, Final residual = 0.000297987, No Iterations 10
[...]
time step continuity errors : sum local = 2.78432e-09, global = 3.0174e-10
GAMG:  Solving for p, Initial residual = 0.00195377, Final residual = 8.91534e-05, No Iterations 6
GAMG:  Solving for p, Initial residual = 0.00102552, Final residual = 4.70892e-05, No Iterations 10
GAMG:  Solving for p, Initial residual = 0.000475426, Final residual = 9.6733e-07, No Iterations 160
time step continuity errors : sum local = 9.16364e-11, global = 9.38098e-12
PIMPLE: Iteration 2
smoothSolver:  Solving for Ux, Initial residual = 6.06904e-05, Final residual = 1.40018e-09, No Iterations 2
smoothSolver:  Solving for Uy, Initial residual = 0.0003467, Final residual = 1.09672e-08, No Iterations 2
smoothSolver:  Solving for Uz, Initial residual = 0.00110323, Final residual = 2.60822e-08, No Iterations 2
GAMG:  Solving for p, Initial residual = 0.00265682, Final residual = 0.000126947, No Iterations 5
GAMG:  Solving for p, Initial residual = 0.00141023, Final residual = 6.34781e-05, No Iterations 6
GAMG:  Solving for p, Initial residual = 0.000472414, Final residual = 2.30244e-05, No Iterations 24
time step continuity errors : sum local = 2.17899e-09, global = -2.59096e-10
GAMG:  Solving for p, Initial residual = 0.00187327, Final residual = 8.49981e-05, No Iterations 5
GAMG:  Solving for p, Initial residual = 0.00099051, Final residual = 4.72572e-05, No Iterations 6
GAMG:  Solving for p, Initial residual = 0.000333653, Final residual = 9.95585e-07, No Iterations 159
time step continuity errors : sum local = 9.42236e-11, global = -9.90828e-12, cumulative = 1.32587e-09
smoothSolver:  Solving for omega, Initial residual = 0.000138901, Final residual = 1.41729e-09, No Iterations 2
smoothSolver:  Solving for k, Initial residual = 0.000293794, Final residual = 6.20581e-09, No Iterations 2
ExecutionTime = 4679.99 s  ClockTime = 4688 s

Courant Number mean: 0.0565343 max: 4.78796
deltaT = 0.46899
Time = 197.18606s

PIMPLE: Iteration 1
smoothSolver:  Solving for Ux, Initial residual = 0.000194717, Final residual = 2.83236e-07, No Iterations 1
smoothSolver:  Solving for Uy, Initial residual = 0.00111182, Final residual = 1.54567e-06, No Iterations 1
smoothSolver:  Solving for Uz, Initial residual = 0.0035628, Final residual = 3.80069e-06, No Iterations 1
GAMG:  Solving for p, Initial residual = 0.00272411, Final residual = 0.0001223, No Iterations 6
GAMG:  Solving for p, Initial residual = 0.00156127, Final residual = 7.39731e-05, No Iterations 7
GAMG:  Solving for p, Initial residual = 0.000591077, Final residual = 2.93032e-05, No Iterations 24
time step continuity errors : sum local = 2.77346e-09, global = 3.00242e-10
GAMG:  Solving for p, Initial residual = 0.00195521, Final residual = 8.85445e-05, No Iterations 6
GAMG:  Solving for p, Initial residual = 0.00102472, Final residual = 4.69144e-05, No Iterations 10
GAMG:  Solving for p, Initial residual = 0.00047446, Final residual = 9.61079e-07, No Iterations 160
time step continuity errors : sum local = 9.09658e-11, global = 9.31059e-12
PIMPLE: Iteration 2
smoothSolver:  Solving for Ux, Initial residual = 6.05565e-05, Final residual = 1.39537e-09, No Iterations 2
smoothSolver:  Solving for Uy, Initial residual = 0.000346382, Final residual = 1.09206e-08, No Iterations 2
smoothSolver:  Solving for Uz, Initial residual = 0.00109965, Final residual = 2.59874e-08, No Iterations 2
GAMG:  Solving for p, Initial residual = 0.00266106, Final residual = 0.00012763, No Iterations 5
GAMG:  Solving for p, Initial residual = 0.00142967, Final residual = 6.80226e-05, No Iterations 5
GAMG:  Solving for p, Initial residual = 0.000451621, Final residual = 2.15827e-05, No Iterations 27
time step continuity errors : sum local = 2.04079e-09, global = -2.39333e-10
GAMG:  Solving for p, Initial residual = 0.00187935, Final residual = 8.36472e-05, No Iterations 5
GAMG:  Solving for p, Initial residual = 0.000988762, Final residual = 4.68247e-05, No Iterations 6
GAMG:  Solving for p, Initial residual = 0.000332058, Final residual = 9.87972e-07, No Iterations 159
time step continuity errors : sum local = 9.34216e-11, global = -9.82141e-12, cumulative = 1.31605e-09
smoothSolver:  Solving for omega, Initial residual = 0.000138801, Final residual = 1.41383e-09, No Iterations 2
smoothSolver:  Solving for k, Initial residual = 0.000293027, Final residual = 6.18442e-09, No Iterations 2
bounding k, min: -0.000736058 max: 4.34942 average: 0.721776
ExecutionTime = 4689.39 s  ClockTime = 4697 s

Courant Number mean: 0.05653 max: 4.78278
deltaT = 0.46899
Time = 197.65505s

PIMPLE: Iteration 1
smoothSolver:  Solving for Ux, Initial residual = 0.000194294, Final residual = 2.82393e-07, No Iterations 1
smoothSolver:  Solving for Uy, Initial residual = 0.00111085, Final residual = 1.54069e-06, No Iterations 1
smoothSolver:  Solving for Uz, Initial residual = 0.00355115, Final residual = 3.79153e-06, No Iterations 1
GAMG:  Solving for p, Initial residual = 0.00272745, Final residual = 0.000122549, No Iterations 6
GAMG:  Solving for p, Initial residual = 0.00155419, Final residual = 7.4166e-05, No Iterations 7
GAMG:  Solving for p, Initial residual = 0.000591025, Final residual = 2.9388e-05, No Iterations 24
time step continuity errors : sum local = 2.77895e-09, global = 3.00489e-10
GAMG:  Solving for p, Initial residual = 0.00195803, Final residual = 8.84236e-05, No Iterations 6
GAMG:  Solving for p, Initial residual = 0.00102415, Final residual = 4.68884e-05, No Iterations 10
GAMG:  Solving for p, Initial residual = 0.000474469, Final residual = 9.58275e-07, No Iterations 160
time step continuity errors : sum local = 9.06178e-11, global = 9.27352e-12
PIMPLE: Iteration 2
smoothSolver:  Solving for Ux, Initial residual = 6.04231e-05, Final residual = 1.39064e-09, No Iterations 2
smoothSolver:  Solving for Uy, Initial residual = 0.000346041, Final residual = 1.08747e-08, No Iterations 2
smoothSolver:  Solving for Uz, Initial residual = 0.00109617, Final residual = 2.59121e-08, No Iterations 2
GAMG:  Solving for p, Initial residual = 0.00266943, Final residual = 0.000124278, No Iterations 5
GAMG:  Solving for p, Initial residual = 0.00141724, Final residual = 6.85257e-05, No Iterations 5
GAMG:  Solving for p, Initial residual = 0.000450627, Final residual = 2.2517e-05, No Iterations 26
time step continuity errors : sum local = 2.12719e-09, global = -2.54074e-10
GAMG:  Solving for p, Initial residual = 0.00188472, Final residual = 8.42505e-05, No Iterations 5
GAMG:  Solving for p, Initial residual = 0.000993463, Final residual = 4.70173e-05, No Iterations 6
GAMG:  Solving for p, Initial residual = 0.000334427, Final residual = 9.90774e-07, No Iterations 159
time step continuity errors : sum local = 9.35994e-11, global = -9.84068e-12, cumulative = 1.30621e-09
smoothSolver:  Solving for omega, Initial residual = 0.000138715, Final residual = 1.41236e-09, No Iterations 2
smoothSolver:  Solving for k, Initial residual = 0.00029227, Final residual = 6.16448e-09, No Iterations 2
ExecutionTime = 4698.77 s  ClockTime = 4707 s

Courant Number mean: 0.0565258 max: 4.77763
deltaT = 0.46899
Time = 198.12404s

PIMPLE: Iteration 1
smoothSolver:  Solving for Ux, Initial residual = 0.000193872, Final residual = 2.81555e-07, No Iterations 1
smoothSolver:  Solving for Uy, Initial residual = 0.0011098, Final residual = 1.53567e-06, No Iterations 1
smoothSolver:  Solving for Uz, Initial residual = 0.00354034, Final residual = 3.78407e-06, No Iterations 1
GAMG:  Solving for p, Initial residual = 0.0027237, Final residual = 0.000122885, No Iterations 6
GAMG:  Solving for p, Initial residual = 0.00155307, Final residual = 7.4262e-05, No Iterations 7
GAMG:  Solving for p, Initial residual = 0.000591159, Final residual = 2.9354e-05, No Iterations 24
time step continuity errors : sum local = 2.77308e-09, global = 2.99433e-10
GAMG:  Solving for p, Initial residual = 0.00195538, Final residual = 8.82399e-05, No Iterations 6
GAMG:  Solving for p, Initial residual = 0.00102743, Final residual = 4.67539e-05, No Iterations 10
GAMG:  Solving for p, Initial residual = 0.000474505, Final residual = 9.93924e-07, No Iterations 158
time step continuity errors : sum local = 9.38991e-11, global = 9.60455e-12
PIMPLE: Iteration 2
smoothSolver:  Solving for Ux, Initial residual = 6.02909e-05, Final residual = 9.98587e-08, No Iterations 1
smoothSolver:  Solving for Uy, Initial residual = 0.000345643, Final residual = 1.08288e-08, No Iterations 2
smoothSolver:  Solving for Uz, Initial residual = 0.00109322, Final residual = 2.58585e-08, No Iterations 2
GAMG:  Solving for p, Initial residual = 0.00267061, Final residual = 0.000124149, No Iterations 5
GAMG:  Solving for p, Initial residual = 0.00138569, Final residual = 6.91571e-05, No Iterations 5
GAMG:  Solving for p, Initial residual = 0.000445201, Final residual = 2.1448e-05, No Iterations 28
time step continuity errors : sum local = 2.02425e-09, global = -2.4248e-10
GAMG:  Solving for p, Initial residual = 0.00188892, Final residual = 8.56706e-05, No Iterations 5
GAMG:  Solving for p, Initial residual = 0.000990896, Final residual = 4.7197e-05, No Iterations 6
GAMG:  Solving for p, Initial residual = 0.000334095, Final residual = 9.91394e-07, No Iterations 159
time step continuity errors : sum local = 9.35671e-11, global = -9.8362e-12, cumulative = 1.29637e-09
smoothSolver:  Solving for omega, Initial residual = 0.000138632, Final residual = 1.4088e-09, No Iterations 2
smoothSolver:  Solving for k, Initial residual = 0.000291511, Final residual = 6.14069e-09, No Iterations 2
bounding k, min: -0.012592 max: 4.31865 average: 0.721093
ExecutionTime = 4708.21 s  ClockTime = 4716 s

Courant Number mean: 0.0565216 max: 4.77252
deltaT = 0.46899
Time = 198.59303s

PIMPLE: Iteration 1
smoothSolver:  Solving for Ux, Initial residual = 0.000193452, Final residual = 2.80709e-07, No Iterations 1
smoothSolver:  Solving for Uy, Initial residual = 0.00110857, Final residual = 1.53013e-06, No Iterations 1
smoothSolver:  Solving for Uz, Initial residual = 0.00353216, Final residual = 3.77626e-06, No Iterations 1
GAMG:  Solving for p, Initial residual = 0.00272502, Final residual = 0.000123018, No Iterations 6
GAMG:  Solving for p, Initial residual = 0.00155204, Final residual = 7.4076e-05, No Iterations 7
GAMG:  Solving for p, Initial residual = 0.000591099, Final residual = 2.92497e-05, No Iterations 24
time step continuity errors : sum local = 2.76056e-09, global = 2.97922e-10
GAMG:  Solving for p, Initial residual = 0.00195565, Final residual = 8.80955e-05, No Iterations 6
GAMG:  Solving for p, Initial residual = 0.0010281, Final residual = 5.11398e-05, No Iterations 8
GAMG:  Solving for p, Initial residual = 0.000433583, Final residual = 9.79161e-07, No Iterations 160
time step continuity errors : sum local = 9.24159e-11, global = 9.45227e-12
PIMPLE: Iteration 2
smoothSolver:  Solving for Ux, Initial residual = 6.01585e-05, Final residual = 9.95547e-08, No Iterations 1
smoothSolver:  Solving for Uy, Initial residual = 0.000345274, Final residual = 1.07798e-08, No Iterations 2
smoothSolver:  Solving for Uz, Initial residual = 0.00109089, Final residual = 2.57114e-08, No Iterations 2
GAMG:  Solving for p, Initial residual = 0.002678, Final residual = 0.000125646, No Iterations 5
GAMG:  Solving for p, Initial residual = 0.00137472, Final residual = 6.21501e-05, No Iterations 6
GAMG:  Solving for p, Initial residual = 0.00045838, Final residual = 2.28622e-05, No Iterations 25
time step continuity errors : sum local = 2.15565e-09, global = -2.57198e-10
GAMG:  Solving for p, Initial residual = 0.00188927, Final residual = 8.70064e-05, No Iterations 5
GAMG:  Solving for p, Initial residual = 0.000987169, Final residual = 4.7661e-05, No Iterations 6
GAMG:  Solving for p, Initial residual = 0.000334834, Final residual = 9.59173e-07, No Iterations 161
time step continuity errors : sum local = 9.04379e-11, global = -9.50087e-12, cumulative = 1.28687e-09
smoothSolver:  Solving for omega, Initial residual = 0.000138556, Final residual = 1.40599e-09, No Iterations 2
smoothSolver:  Solving for k, Initial residual = 0.000290752, Final residual = 6.11883e-09, No Iterations 2
bounding k, min: -0.00377018 max: 4.30346 average: 0.720754
ExecutionTime = 4717.6 s  ClockTime = 4725 s

Courant Number mean: 0.0565175 max: 4.76745
deltaT = 0.46899
Time = 199.06202s

PIMPLE: Iteration 1
smoothSolver:  Solving for Ux, Initial residual = 0.000193034, Final residual = 2.79873e-07, No Iterations 1
smoothSolver:  Solving for Uy, Initial residual = 0.00110752, Final residual = 1.52492e-06, No Iterations 1
smoothSolver:  Solving for Uz, Initial residual = 0.00352557, Final residual = 3.7678e-06, No Iterations 1
GAMG:  Solving for p, Initial residual = 0.00272827, Final residual = 0.000123845, No Iterations 6
GAMG:  Solving for p, Initial residual = 0.00154748, Final residual = 7.42616e-05, No Iterations 7
GAMG:  Solving for p, Initial residual = 0.000590895, Final residual = 2.92972e-05, No Iterations 24
time step continuity errors : sum local = 2.76245e-09, global = 2.97939e-10
GAMG:  Solving for p, Initial residual = 0.00196114, Final residual = 8.84727e-05, No Iterations 6
GAMG:  Solving for p, Initial residual = 0.00102799, Final residual = 5.11638e-05, No Iterations 8
GAMG:  Solving for p, Initial residual = 0.000433543, Final residual = 9.75595e-07, No Iterations 160
time step continuity errors : sum local = 9.19929e-11, global = 9.40701e-12
PIMPLE: Iteration 2
smoothSolver:  Solving for Ux, Initial residual = 6.00267e-05, Final residual = 9.92566e-08, No Iterations 1
smoothSolver:  Solving for Uy, Initial residual = 0.000345001, Final residual = 1.07332e-08, No Iterations 2
smoothSolver:  Solving for Uz, Initial residual = 0.00108911, Final residual = 2.56129e-08, No Iterations 2
GAMG:  Solving for p, Initial residual = 0.00268198, Final residual = 0.000126499, No Iterations 5
GAMG:  Solving for p, Initial residual = 0.00136413, Final residual = 6.2808e-05, No Iterations 6
GAMG:  Solving for p, Initial residual = 0.000458818, Final residual = 2.19061e-05, No Iterations 27
time step continuity errors : sum local = 2.06355e-09, global = -2.46521e-10
GAMG:  Solving for p, Initial residual = 0.00189471, Final residual = 8.79565e-05, No Iterations 5
GAMG:  Solving for p, Initial residual = 0.00097957, Final residual = 4.78076e-05, No Iterations 6
GAMG:  Solving for p, Initial residual = 0.00033377, Final residual = 9.60196e-07, No Iterations 161
time step continuity errors : sum local = 9.04486e-11, global = -9.50088e-12, cumulative = 1.27737e-09
smoothSolver:  Solving for omega, Initial residual = 0.000138457, Final residual = 1.40249e-09, No Iterations 2
smoothSolver:  Solving for k, Initial residual = 0.000289998, Final residual = 6.09603e-09, No Iterations 2
ExecutionTime = 4727 s  ClockTime = 4735 s

Courant Number mean: 0.0565133 max: 4.76241
deltaT = 0.46899
Time = 199.53101s

PIMPLE: Iteration 1
smoothSolver:  Solving for Ux, Initial residual = 0.00019262, Final residual = 2.79041e-07, No Iterations 1
smoothSolver:  Solving for Uy, Initial residual = 0.00110686, Final residual = 1.52029e-06, No Iterations 1
smoothSolver:  Solving for Uz, Initial residual = 0.00352005, Final residual = 3.76067e-06, No Iterations 1
GAMG:  Solving for p, Initial residual = 0.00270599, Final residual = 0.00012419, No Iterations 6
GAMG:  Solving for p, Initial residual = 0.00153177, Final residual = 7.44724e-05, No Iterations 7
GAMG:  Solving for p, Initial residual = 0.000588089, Final residual = 2.93286e-05, No Iterations 24
time step continuity errors : sum local = 2.7628e-09, global = 2.97817e-10
GAMG:  Solving for p, Initial residual = 0.00194797, Final residual = 8.83903e-05, No Iterations 6
GAMG:  Solving for p, Initial residual = 0.00102132, Final residual = 4.65202e-05, No Iterations 10
GAMG:  Solving for p, Initial residual = 0.000472184, Final residual = 9.77242e-07, No Iterations 158
time step continuity errors : sum local = 9.20608e-11, global = 9.41101e-12
PIMPLE: Iteration 2
smoothSolver:  Solving for Ux, Initial residual = 5.98962e-05, Final residual = 9.89575e-08, No Iterations 1
smoothSolver:  Solving for Uy, Initial residual = 0.000344776, Final residual = 1.06926e-08, No Iterations 2
smoothSolver:  Solving for Uz, Initial residual = 0.00108758, Final residual = 2.55499e-08, No Iterations 2
GAMG:  Solving for p, Initial residual = 0.0026525, Final residual = 0.00012593, No Iterations 5
GAMG:  Solving for p, Initial residual = 0.00134904, Final residual = 6.32752e-05, No Iterations 6
GAMG:  Solving for p, Initial residual = 0.000456349, Final residual = 2.20316e-05, No Iterations 27
time step continuity errors : sum local = 2.07339e-09, global = -2.47502e-10
GAMG:  Solving for p, Initial residual = 0.00187639, Final residual = 8.8496e-05, No Iterations 5
GAMG:  Solving for p, Initial residual = 0.000968487, Final residual = 4.82204e-05, No Iterations 6
GAMG:  Solving for p, Initial residual = 0.00033168, Final residual = 9.66756e-07, No Iterations 161
time step continuity errors : sum local = 9.09795e-11, global = -9.55575e-12, cumulative = 1.26782e-09
smoothSolver:  Solving for omega, Initial residual = 0.000138358, Final residual = 1.39918e-09, No Iterations 2
smoothSolver:  Solving for k, Initial residual = 0.00028925, Final residual = 6.07406e-09, No Iterations 2
ExecutionTime = 4736.46 s  ClockTime = 4744 s

Courant Number mean: 0.0565092 max: 4.75739
deltaT = 0.46899
Time = 200s

PIMPLE: Iteration 1
smoothSolver:  Solving for Ux, Initial residual = 0.000192209, Final residual = 2.78208e-07, No Iterations 1
smoothSolver:  Solving for Uy, Initial residual = 0.00110622, Final residual = 1.51523e-06, No Iterations 1
smoothSolver:  Solving for Uz, Initial residual = 0.0035154, Final residual = 3.7525e-06, No Iterations 1
GAMG:  Solving for p, Initial residual = 0.00269799, Final residual = 0.000124043, No Iterations 6
GAMG:  Solving for p, Initial residual = 0.00152455, Final residual = 7.44319e-05, No Iterations 7
GAMG:  Solving for p, Initial residual = 0.000587326, Final residual = 2.92572e-05, No Iterations 24
time step continuity errors : sum local = 2.75346e-09, global = 2.96619e-10
GAMG:  Solving for p, Initial residual = 0.00194025, Final residual = 8.80586e-05, No Iterations 6
GAMG:  Solving for p, Initial residual = 0.00101828, Final residual = 4.63984e-05, No Iterations 10
GAMG:  Solving for p, Initial residual = 0.000471308, Final residual = 9.68624e-07, No Iterations 158
time step continuity errors : sum local = 9.11628e-11, global = 9.317e-12
PIMPLE: Iteration 2
smoothSolver:  Solving for Ux, Initial residual = 5.97675e-05, Final residual = 9.86586e-08, No Iterations 1
smoothSolver:  Solving for Uy, Initial residual = 0.00034457, Final residual = 1.06475e-08, No Iterations 2
smoothSolver:  Solving for Uz, Initial residual = 0.00108616, Final residual = 2.54378e-08, No Iterations 2
GAMG:  Solving for p, Initial residual = 0.00264879, Final residual = 0.000125674, No Iterations 5
GAMG:  Solving for p, Initial residual = 0.0013403, Final residual = 6.3717e-05, No Iterations 6
GAMG:  Solving for p, Initial residual = 0.000456771, Final residual = 2.21736e-05, No Iterations 27
time step continuity errors : sum local = 2.08479e-09, global = -2.48771e-10
GAMG:  Solving for p, Initial residual = 0.00187585, Final residual = 8.88604e-05, No Iterations 5
GAMG:  Solving for p, Initial residual = 0.00096225, Final residual = 4.42683e-05, No Iterations 7
GAMG:  Solving for p, Initial residual = 0.000341698, Final residual = 9.76786e-07, No Iterations 160
time step continuity errors : sum local = 9.1835e-11, global = -9.64374e-12, cumulative = 1.25817e-09
smoothSolver:  Solving for omega, Initial residual = 0.000138258, Final residual = 1.39604e-09, No Iterations 2
smoothSolver:  Solving for k, Initial residual = 0.000288517, Final residual = 6.04863e-09, No Iterations 2
ExecutionTime = 4747.23 s  ClockTime = 4756 s

End

