/*---------------------------------------------------------------------------*\
  =========                 |
  \\      /  F ield         | OpenFOAM: The Open Source CFD Toolbox
   \\    /   O peration     | Website:  https://openfoam.org
    \\  /    A nd           | Version:  13
     \\/     M anipulation  |
\*---------------------------------------------------------------------------*/
Build  : 13-441953dfbb42
Exec   : snappyHexMesh
Date   : Jun 19 2026
Time   : 10:33:57
Host   : "openfoam"
PID    : 1586
I/O    : uncollated
Case   : /home/ubuntu/OpenFOAM/ubuntu-v13/run/wStockNoTerrain/urans/winter
nProcs : 1
sigFpe : Floating point exception trapping - not supported on this platform
fileModificationChecking : Monitoring run-time modified files using timeStampMaster (fileModificationSkew 10)
allowSystemOperations : Allowing user-supplied system call operations

// * * * * * * * * * * * * * * * * * * * * * * * * * * * * * * * * * * * * * //
Create time

Create mesh for time = 0

Read mesh in = 0.127098 s
Reading "snappyHexMeshDict"


Overall mesh bounding box  : (-1600.36 -1600.36 0) (4000.9 1600.36 146.5)
Relative tolerance         : 1e-06
Absolute matching distance : 0.00645293

Reading refinement surfaces...
Read refinement surfaces in = 0.009912 s

Reading refinement regions...
Refinement level 2 for all cells inside refinementBox
Refinement level 3 for all cells inside pedestrianZone
Read refinement regions in = 2.4e-05 s

Reading features...
Read edgeMesh buildings.eMesh
    points      : 3660
    edges       : 5312
    boundingBox : (-248.744 -334.648 0) (363.592 335.292 29.3)

Refinement level according to distance to "buildings.eMesh" (3660 points, 5312 edges).
    level 1 for all cells within 0 metre.
Read features in = 0.008575 s


Determining initial surface intersections
-----------------------------------------

Edge intersection testing:
    Number of edges             : 123800
    Number of edges to retest   : 123800
    Number of intersected edges : 130
Calculated surface intersections in = 0.071281 s

Initial mesh : cells:40000  faces:123800  points:43911
Cells per refinement level:
    0	40000

Adding patches for surface regions
----------------------------------

Patch Type                Region                        
----- ----                ------                        
buildings:

5     wall                buildings                     

Added patches in = 0.001629 s

Selecting distributor none
Cell selection insidePoints: 1((0.1 0.1 87.9))

Refinement phase
----------------

Found point (0.1 0.1 87.9) in cell 23014 on processor 0

Feature refinement iteration 0
------------------------------

Marked for refinement due to explicit features             : 112 cells.
Determined cells to refine in = 0.214415 s
Selected for feature refinement : 112 cells (out of 40000)
Edge intersection testing:
    Number of edges             : 126500
    Number of edges to retest   : 3569
    Number of intersected edges : 747
Refined mesh in = 0.057097 s
After refinement feature refinement iteration 0 : cells:40784  faces:126500  points:45066
Cells per refinement level:
    0	39888
    1	896

Feature refinement iteration 1
------------------------------

Marked for refinement due to explicit features             : 1 cells.
Determined cells to refine in = 0.220913 s
Selected for feature refinement : 1 cells (out of 40784)
Edge intersection testing:
    Number of edges             : 126524
    Number of edges to retest   : 94
    Number of intersected edges : 747
Refined mesh in = 0.046464 s
After refinement feature refinement iteration 1 : cells:40791  faces:126524  points:45076
Cells per refinement level:
    0	39887
    1	904

Feature refinement iteration 2
------------------------------

Marked for refinement due to explicit features             : 0 cells.
Determined cells to refine in = 0.220765 s
Selected for feature refinement : 0 cells (out of 40791)
Stopping refining since too few cells selected.


Surface refinement iteration 0
------------------------------

Marked for refinement due to surface intersection          : 558 cells.
Determined cells to refine in = 0.001398 s
Selected for refinement : 598 cells (out of 40791)
Edge intersection testing:
    Number of edges             : 140402
    Number of edges to retest   : 17494
    Number of intersected edges : 3668
Refined mesh in = 0.05911 s
After refinement surface refinement iteration 0 : cells:44977  faces:140402  points:50634
Cells per refinement level:
    0	39826
    1	855
    2	4296

Surface refinement iteration 1
------------------------------

Marked for refinement due to surface intersection          : 3021 cells.
Determined cells to refine in = 0.003313 s
Selected for refinement : 3245 cells (out of 44977)
Edge intersection testing:
    Number of edges             : 213878
    Number of edges to retest   : 90870
    Number of intersected edges : 17428
Refined mesh in = 0.118458 s
After refinement surface refinement iteration 1 : cells:67692  faces:213878  points:78811
Cells per refinement level:
    0	39780
    1	946
    2	3590
    3	23376

Surface refinement iteration 2
------------------------------

Marked for refinement due to surface intersection          : 348 cells.
Determined cells to refine in = 0.008741 s
Selected for refinement : 413 cells (out of 67692)
Edge intersection testing:
    Number of edges             : 222923
    Number of edges to retest   : 28249
    Number of intersected edges : 17599
Refined mesh in = 0.105056 s
After refinement surface refinement iteration 2 : cells:70583  faces:222923  points:82073
Cells per refinement level:
    0	39770
    1	967
    2	3718
    3	26128

Surface refinement iteration 3
------------------------------

Marked for refinement due to surface intersection          : 38 cells.
Determined cells to refine in = 0.00873 s
Selected for refinement : 46 cells (out of 70583)
Edge intersection testing:
    Number of edges             : 223916
    Number of edges to retest   : 3927
    Number of intersected edges : 17602
Refined mesh in = 0.088553 s
After refinement surface refinement iteration 3 : cells:70905  faces:223916  points:82420
Cells per refinement level:
    0	39769
    1	968
    2	3736
    3	26432

Surface refinement iteration 4
------------------------------

Marked for refinement due to surface intersection          : 0 cells.
Determined cells to refine in = 0.007567 s
Selected for refinement : 0 cells (out of 70905)
Stopping refining since too few cells selected.


Removing mesh beyond surface intersections
------------------------------------------

Selecting all cells in regions containing any of the points in 1((0.1 0.1 87.9))
Selected: 70594 cells.
Edge intersection testing:
    Number of edges             : 223427
    Number of edges to retest   : 1020
    Number of intersected edges : 17602

Shell refinement iteration 0
----------------------------

Marked for refinement due to distance to explicit features : 0 cells.
Marked for refinement due to refinement shells             : 3434 cells.
Determined cells to refine in = 0.642458 s
Selected for internal refinement : 3434 cells (out of 70594)
Edge intersection testing:
    Number of edges             : 298115
    Number of edges to retest   : 104579
    Number of intersected edges : 17608
Refined mesh in = 0.131119 s
After refinement shell refinement iteration 0 : cells:94632  faces:298115  points:109029
Cells per refinement level:
    0	37552
    1	17736
    2	11217
    3	28127

Shell refinement iteration 1
----------------------------

Marked for refinement due to distance to explicit features : 0 cells.
Marked for refinement due to refinement shells             : 18148 cells.
Determined cells to refine in = 0.013451 s
Selected for internal refinement : 19048 cells (out of 94632)
Edge intersection testing:
    Number of edges             : 705698
    Number of edges to retest   : 487062
    Number of intersected edges : 17608
Refined mesh in = 0.356395 s
After refinement shell refinement iteration 1 : cells:227968  faces:705698  points:249986
Cells per refinement level:
    0	36652
    1	7200
    2	152693
    3	31423

Shell refinement iteration 2
----------------------------

Marked for refinement due to distance to explicit features : 0 cells.
Marked for refinement due to refinement shells             : 5840 cells.
Determined cells to refine in = 0.022394 s
Selected for internal refinement : 5946 cells (out of 227968)
Edge intersection testing:
    Number of edges             : 847010
    Number of edges to retest   : 195935
    Number of intersected edges : 17608
Refined mesh in = 0.353434 s
After refinement shell refinement iteration 2 : cells:269590  faces:847010  points:308140
Cells per refinement level:
    0	36614
    1	6860
    2	152581
    3	73535

Shell refinement iteration 3
----------------------------

Marked for refinement due to distance to explicit features : 0 cells.
Marked for refinement due to refinement shells             : 96 cells.
Determined cells to refine in = 0.022349 s
Selected for internal refinement : 98 cells (out of 269590)
Edge intersection testing:
    Number of edges             : 849365
    Number of edges to retest   : 5334
    Number of intersected edges : 17608
Refined mesh in = 0.344492 s
After refinement shell refinement iteration 3 : cells:270276  faces:849365  points:309124
Cells per refinement level:
    0	36614
    1	6858
    2	152501
    3	74303

Shell refinement iteration 4
----------------------------

Marked for refinement due to distance to explicit features : 0 cells.
Marked for refinement due to refinement shells             : 0 cells.
Determined cells to refine in = 0.022526 s
Selected for internal refinement : 0 cells (out of 270276)
Stopping refining since too few cells selected.


Dangling coarse cells refinement iteration 0
--------------------------------------------

Determined cells to refine in = 0.006416 s
Selected for refinement : 17 cells (out of 270276)
Edge intersection testing:
    Number of edges             : 849620
    Number of edges to retest   : 2073
    Number of intersected edges : 17608
Refined mesh in = 0.325841 s
After refinement coarse cell refinement iteration 0 : cells:270395  faces:849620  points:309158
Cells per refinement level:
    0	36614
    1	6858
    2	152484
    3	74439

Dangling coarse cells refinement iteration 1
--------------------------------------------

Determined cells to refine in = 0.00619 s
Selected for refinement : 3 cells (out of 270395)
Stopping refining since too few cells selected.


Dangling coarse cells refinement iteration 0
--------------------------------------------

Determined cells to refine in = 0.004283 s
Selected for refinement : 0 cells (out of 270395)
Stopping refining since too few cells selected.


Splitting mesh at surface intersections
---------------------------------------

Introducing baffles for 17608 faces that are intersected by the surface.

Edge intersection testing:
    Number of edges             : 866425
    Number of edges to retest   : 78155
    Number of intersected edges : 34413
Created baffles in = 0.308933 s


After introducing baffles : cells:270395  faces:866425  points:309158
Cells per refinement level:
    0	36614
    1	6858
    2	152484
    3	74439

Introducing baffles to block off problem cells
----------------------------------------------

markFacesOnProblemCells : marked 12728 additional internal faces to be converted into baffles.
Analyzed problem cells in = 0.217395 s


Introducing baffles to delete problem cells.

Edge intersection testing:
    Number of edges             : 879153
    Number of edges to retest   : 54005
    Number of intersected edges : 34413
Created baffles in = 0.300131 s


After introducing baffles : cells:270395  faces:879153  points:309158
Cells per refinement level:
    0	36614
    1	6858
    2	152484
    3	74439

Remove unreachable sections of mesh
-----------------------------------

Keeping all cells in regions containing any point in 1((0.1 0.1 87.9))
Selected for keeping : 259961 cells.
Edge intersection testing:
    Number of edges             : 823040
    Number of edges to retest   : 0
    Number of intersected edges : 10507
Split mesh in = 2.48392 s


After subsetting : cells:259961  faces:823040  points:302929
Cells per refinement level:
    0	36614
    1	6858
    2	152470
    3	64019

Handling cells with snap problems
---------------------------------

Introducing baffles for 10507 faces that are intersected by the surface.

Edge intersection testing:
    Number of edges             : 823040
    Number of edges to retest   : 35756
    Number of intersected edges : 10507
Created baffles in = 0.23313 s


After introducing baffles : cells:259961  faces:823040  points:302929
Cells per refinement level:
    0	36614
    1	6858
    2	152470
    3	64019

Introducing baffles to block off problem cells
----------------------------------------------

markFacesOnProblemCells : marked 17 additional internal faces to be converted into baffles.
Analyzed problem cells in = 0.26053 s


Introducing baffles to delete problem cells.

Edge intersection testing:
    Number of edges             : 823057
    Number of edges to retest   : 94
    Number of intersected edges : 10507
Created baffles in = 0.264637 s


After introducing baffles : cells:259961  faces:823057  points:302929
Cells per refinement level:
    0	36614
    1	6858
    2	152470
    3	64019

Remove unreachable sections of mesh
-----------------------------------

Keeping all cells in regions containing any point in 1((0.1 0.1 87.9))
Selected for keeping : 259953 cells.
Edge intersection testing:
    Number of edges             : 823009
    Number of edges to retest   : 0
    Number of intersected edges : 10495
Split mesh in = 2.45178 s


After subsetting : cells:259953  faces:823009  points:302913
Cells per refinement level:
    0	36614
    1	6858
    2	152470
    3	64011

Merge free-standing baffles
---------------------------

freeStandingBaffles : detected 373 free-standing baffles out of 393

freeStandingBaffles : detected 0 planar (within 30 degrees) free-standing baffles out of 373

Detected free-standing baffles : 0
Merged free-standing baffles in = 0.066865 s


dupNonManifoldPoints : Found : 421 non-manifold points (out of 302913)
Edge intersection testing:
    Number of edges             : 823009
    Number of edges to retest   : 0
    Number of intersected edges : 10495
Detected unsplittable baffles : 2
Edge intersection testing:
    Number of edges             : 823007
    Number of edges to retest   : 2
    Number of intersected edges : 10493
Merged free-standing baffles in = 2.86149 s.

Merge refined boundary faces
----------------------------

Merging 2 sets of faces.

Edge intersection testing:
    Number of edges             : 823005
    Number of edges to retest   : 28
    Number of intersected edges : 10494

Undo iteration 0
----------------
Checking faces in error :
    non-orthogonality > 65  degrees                        : 35084
    faces with concavity > 80  degrees                     : 0
    faces with skewness > 4   (internal) or 20  (boundary) : 0
    faces with interpolation weights (0..1)  < 0.05        : 0
    faces with volume ratio of neighbour cells < 0.01      : 0
    faces with face twist < 0.02                           : 0
    faces on cells with determinant < 0.001                : 0
Masters that need to be restored:2
Edge intersection testing:
    Number of edges             : 823007
    Number of edges to retest   : 30
    Number of intersected edges : 10493


Undo iteration 1
----------------
Checking faces in error :
    non-orthogonality > 65  degrees                        : 35084
    faces with concavity > 80  degrees                     : 0
    faces with skewness > 4   (internal) or 20  (boundary) : 0
    faces with interpolation weights (0..1)  < 0.05        : 0
    faces with volume ratio of neighbour cells < 0.01      : 0
    faces with face twist < 0.02                           : 0
    faces on cells with determinant < 0.001                : 0
Masters that need to be restored:0

Merging all points on surface that
- are used by only two boundary faces and
- make an angle with a cosine of more than 0.707107.

No straight edges simplified and no points removed ...
Refined mesh : cells:259953  faces:823007  points:303364
Cells per refinement level:
    0	36614
    1	6858
    2	152470
    3	64011
Writing mesh to time constant
Wrote mesh in = 1.51027 s.
Mesh refined in = 14.3708 s.

Morphing phase
--------------


Snapping to features in 10 iterations ...
Constructing mesh displacer ...
Using mesh parameters 
{
    maxNonOrtho     65;
    maxBoundarySkewness 20;
    maxInternalSkewness 4;
    maxConcave      80;
    minVol          -1e+30;
    minTetQuality   -1e+30;
    minTwist        0.02;
    minDeterminant  0.001;
    minFaceWeight   0.05;
    minVolRatio     0.01;
    nSmoothScale    4;
    errorReduction  0.75;
    relaxed
    {
        maxNonOrtho     75;
    }
}


Checking initial mesh ...
Checking faces in error :
    non-orthogonality > 65  degrees                        : 35084
    faces with concavity > 80  degrees                     : 0
    faces with skewness > 4   (internal) or 20  (boundary) : 0
    faces with interpolation weights (0..1)  < 0.05        : 0
    faces with volume ratio of neighbour cells < 0.01      : 0
    faces with face twist < 0.02                           : 0
    faces on cells with determinant < 0.001                : 0
Detected 35084 illegal faces (concave, zero area or negative cell pyramid volume)
Checked initial mesh in = 0.113847 s


Smoothing patch points ...
Smoothing iteration 0
Found 872 non-manifold point(s).

Scaling iteration 0
Moving mesh using displacement scaling : min:1  max:1
Checking faces in error :
    non-orthogonality > 65  degrees                        : 35352
    faces with concavity > 80  degrees                     : 10
    faces with skewness > 4   (internal) or 20  (boundary) : 0
    faces with interpolation weights (0..1)  < 0.05        : 0
    faces with volume ratio of neighbour cells < 0.01      : 0
    faces with face twist < 0.02                           : 0
    faces on cells with determinant < 0.001                : 0

Scaling iteration 1
Moving mesh using displacement scaling : min:0.75  max:1
Checking faces in error :
    non-orthogonality > 65  degrees                        : 35085
    faces with concavity > 80  degrees                     : 5
    faces with skewness > 4   (internal) or 20  (boundary) : 0
    faces with interpolation weights (0..1)  < 0.05        : 0
    faces with volume ratio of neighbour cells < 0.01      : 0
    faces with face twist < 0.02                           : 0
    faces on cells with determinant < 0.001                : 0

Scaling iteration 2
Moving mesh using displacement scaling : min:0.5625  max:1
Checking faces in error :
    non-orthogonality > 65  degrees                        : 35084
    faces with concavity > 80  degrees                     : 6
    faces with skewness > 4   (internal) or 20  (boundary) : 0
    faces with interpolation weights (0..1)  < 0.05        : 0
    faces with volume ratio of neighbour cells < 0.01      : 0
    faces with face twist < 0.02                           : 0
    faces on cells with determinant < 0.001                : 0

Scaling iteration 3
Moving mesh using displacement scaling : min:0.421875  max:1
Checking faces in error :
    non-orthogonality > 65  degrees                        : 35084
    faces with concavity > 80  degrees                     : 4
    faces with skewness > 4   (internal) or 20  (boundary) : 0
    faces with interpolation weights (0..1)  < 0.05        : 0
    faces with volume ratio of neighbour cells < 0.01      : 0
    faces with face twist < 0.02                           : 0
    faces on cells with determinant < 0.001                : 0

Scaling iteration 4
Moving mesh using displacement scaling : min:0.316406  max:1
Checking faces in error :
    non-orthogonality > 65  degrees                        : 35084
    faces with concavity > 80  degrees                     : 3
    faces with skewness > 4   (internal) or 20  (boundary) : 0
    faces with interpolation weights (0..1)  < 0.05        : 0
    faces with volume ratio of neighbour cells < 0.01      : 0
    faces with face twist < 0.02                           : 0
    faces on cells with determinant < 0.001                : 0

Scaling iteration 5
Displacement scaling for error reduction set to 0.
Moving mesh using displacement scaling : min:0.237305  max:1
Checking faces in error :
    non-orthogonality > 65  degrees                        : 35084
    faces with concavity > 80  degrees                     : 3
    faces with skewness > 4   (internal) or 20  (boundary) : 0
    faces with interpolation weights (0..1)  < 0.05        : 0
    faces with volume ratio of neighbour cells < 0.01      : 0
    faces with face twist < 0.02                           : 0
    faces on cells with determinant < 0.001                : 0

Scaling iteration 6
Moving mesh using displacement scaling : min:0  max:1
Checking faces in error :
    non-orthogonality > 65  degrees                        : 35084
    faces with concavity > 80  degrees                     : 14
    faces with skewness > 4   (internal) or 20  (boundary) : 0
    faces with interpolation weights (0..1)  < 0.05        : 0
    faces with volume ratio of neighbour cells < 0.01      : 0
    faces with face twist < 0.02                           : 0
    faces on cells with determinant < 0.001                : 0

Scaling iteration 7
Moving mesh using displacement scaling : min:0  max:1
Checking faces in error :
    non-orthogonality > 65  degrees                        : 35084
    faces with concavity > 80  degrees                     : 9
    faces with skewness > 4   (internal) or 20  (boundary) : 0
    faces with interpolation weights (0..1)  < 0.05        : 0
    faces with volume ratio of neighbour cells < 0.01      : 0
    faces with face twist < 0.02                           : 0
    faces on cells with determinant < 0.001                : 0

Scaling iteration 8
Moving mesh using displacement scaling : min:0  max:1
Checking faces in error :
    non-orthogonality > 65  degrees                        : 35084
    faces with concavity > 80  degrees                     : 5
    faces with skewness > 4   (internal) or 20  (boundary) : 0
    faces with interpolation weights (0..1)  < 0.05        : 0
    faces with volume ratio of neighbour cells < 0.01      : 0
    faces with face twist < 0.02                           : 0
    faces on cells with determinant < 0.001                : 0

Scaling iteration 9
Moving mesh using displacement scaling : min:0  max:1
Checking faces in error :
    non-orthogonality > 65  degrees                        : 35084
    faces with concavity > 80  degrees                     : 3
    faces with skewness > 4   (internal) or 20  (boundary) : 0
    faces with interpolation weights (0..1)  < 0.05        : 0
    faces with volume ratio of neighbour cells < 0.01      : 0
    faces with face twist < 0.02                           : 0
    faces on cells with determinant < 0.001                : 0

Smoothing iteration 1
Found 39 non-manifold point(s).

Scaling iteration 0
Moving mesh using displacement scaling : min:1  max:1
Checking faces in error :
    non-orthogonality > 65  degrees                        : 35430
    faces with concavity > 80  degrees                     : 7
    faces with skewness > 4   (internal) or 20  (boundary) : 0
    faces with interpolation weights (0..1)  < 0.05        : 0
    faces with volume ratio of neighbour cells < 0.01      : 0
    faces with face twist < 0.02                           : 0
    faces on cells with determinant < 0.001                : 0

Scaling iteration 1
Moving mesh using displacement scaling : min:0.75  max:1
Checking faces in error :
    non-orthogonality > 65  degrees                        : 35141
    faces with concavity > 80  degrees                     : 3
    faces with skewness > 4   (internal) or 20  (boundary) : 0
    faces with interpolation weights (0..1)  < 0.05        : 0
    faces with volume ratio of neighbour cells < 0.01      : 0
    faces with face twist < 0.02                           : 0
    faces on cells with determinant < 0.001                : 0

Scaling iteration 2
Moving mesh using displacement scaling : min:0.5625  max:1
Checking faces in error :
    non-orthogonality > 65  degrees                        : 35096
    faces with concavity > 80  degrees                     : 4
    faces with skewness > 4   (internal) or 20  (boundary) : 0
    faces with interpolation weights (0..1)  < 0.05        : 0
    faces with volume ratio of neighbour cells < 0.01      : 0
    faces with face twist < 0.02                           : 0
    faces on cells with determinant < 0.001                : 0

Scaling iteration 3
Moving mesh using displacement scaling : min:0.421875  max:1
Checking faces in error :
    non-orthogonality > 65  degrees                        : 35091
    faces with concavity > 80  degrees                     : 3
    faces with skewness > 4   (internal) or 20  (boundary) : 0
    faces with interpolation weights (0..1)  < 0.05        : 0
    faces with volume ratio of neighbour cells < 0.01      : 0
    faces with face twist < 0.02                           : 0
    faces on cells with determinant < 0.001                : 0

Scaling iteration 4
Moving mesh using displacement scaling : min:0.316406  max:1
Checking faces in error :
    non-orthogonality > 65  degrees                        : 35088
    faces with concavity > 80  degrees                     : 1
    faces with skewness > 4   (internal) or 20  (boundary) : 0
    faces with interpolation weights (0..1)  < 0.05        : 0
    faces with volume ratio of neighbour cells < 0.01      : 0
    faces with face twist < 0.02                           : 0
    faces on cells with determinant < 0.001                : 0

Scaling iteration 5
Displacement scaling for error reduction set to 0.
Moving mesh using displacement scaling : min:0.237305  max:1
Checking faces in error :
    non-orthogonality > 65  degrees                        : 35085
    faces with concavity > 80  degrees                     : 3
    faces with skewness > 4   (internal) or 20  (boundary) : 0
    faces with interpolation weights (0..1)  < 0.05        : 0
    faces with volume ratio of neighbour cells < 0.01      : 0
    faces with face twist < 0.02                           : 0
    faces on cells with determinant < 0.001                : 0

Scaling iteration 6
Moving mesh using displacement scaling : min:0  max:1
Checking faces in error :
    non-orthogonality > 65  degrees                        : 35084
    faces with concavity > 80  degrees                     : 4
    faces with skewness > 4   (internal) or 20  (boundary) : 0
    faces with interpolation weights (0..1)  < 0.05        : 0
    faces with volume ratio of neighbour cells < 0.01      : 0
    faces with face twist < 0.02                           : 0
    faces on cells with determinant < 0.001                : 0

Scaling iteration 7
Moving mesh using displacement scaling : min:0  max:1
Checking faces in error :
    non-orthogonality > 65  degrees                        : 35084
    faces with concavity > 80  degrees                     : 3
    faces with skewness > 4   (internal) or 20  (boundary) : 0
    faces with interpolation weights (0..1)  < 0.05        : 0
    faces with volume ratio of neighbour cells < 0.01      : 0
    faces with face twist < 0.02                           : 0
    faces on cells with determinant < 0.001                : 0

Scaling iteration 8
Moving mesh using displacement scaling : min:0  max:1
Checking faces in error :
    non-orthogonality > 65  degrees                        : 35084
    faces with concavity > 80  degrees                     : 0
    faces with skewness > 4   (internal) or 20  (boundary) : 0
    faces with interpolation weights (0..1)  < 0.05        : 0
    faces with volume ratio of neighbour cells < 0.01      : 0
    faces with face twist < 0.02                           : 0
    faces on cells with determinant < 0.001                : 0
Successfully moved mesh

Smoothing iteration 2
Found 37 non-manifold point(s).

Scaling iteration 0
Moving mesh using displacement scaling : min:1  max:1
Checking faces in error :
    non-orthogonality > 65  degrees                        : 35503
    faces with concavity > 80  degrees                     : 8
    faces with skewness > 4   (internal) or 20  (boundary) : 0
    faces with interpolation weights (0..1)  < 0.05        : 0
    faces with volume ratio of neighbour cells < 0.01      : 0
    faces with face twist < 0.02                           : 0
    faces on cells with determinant < 0.001                : 0

Scaling iteration 1
Moving mesh using displacement scaling : min:0.75  max:1
Checking faces in error :
    non-orthogonality > 65  degrees                        : 35239
    faces with concavity > 80  degrees                     : 3
    faces with skewness > 4   (internal) or 20  (boundary) : 0
    faces with interpolation weights (0..1)  < 0.05        : 0
    faces with volume ratio of neighbour cells < 0.01      : 0
    faces with face twist < 0.02                           : 0
    faces on cells with determinant < 0.001                : 0

Scaling iteration 2
Moving mesh using displacement scaling : min:0.5625  max:1
Checking faces in error :
    non-orthogonality > 65  degrees                        : 35165
    faces with concavity > 80  degrees                     : 2
    faces with skewness > 4   (internal) or 20  (boundary) : 0
    faces with interpolation weights (0..1)  < 0.05        : 0
    faces with volume ratio of neighbour cells < 0.01      : 0
    faces with face twist < 0.02                           : 0
    faces on cells with determinant < 0.001                : 0

Scaling iteration 3
Moving mesh using displacement scaling : min:0.421875  max:1
Checking faces in error :
    non-orthogonality > 65  degrees                        : 35129
    faces with concavity > 80  degrees                     : 14
    faces with skewness > 4   (internal) or 20  (boundary) : 0
    faces with interpolation weights (0..1)  < 0.05        : 0
    faces with volume ratio of neighbour cells < 0.01      : 0
    faces with face twist < 0.02                           : 0
    faces on cells with determinant < 0.001                : 0

Scaling iteration 4
Moving mesh using displacement scaling : min:0.316406  max:1
Checking faces in error :
    non-orthogonality > 65  degrees                        : 35115
    faces with concavity > 80  degrees                     : 25
    faces with skewness > 4   (internal) or 20  (boundary) : 0
    faces with interpolation weights (0..1)  < 0.05        : 0
    faces with volume ratio of neighbour cells < 0.01      : 0
    faces with face twist < 0.02                           : 0
    faces on cells with determinant < 0.001                : 0

Scaling iteration 5
Displacement scaling for error reduction set to 0.
Moving mesh using displacement scaling : min:0.237305  max:1
Checking faces in error :
    non-orthogonality > 65  degrees                        : 35106
    faces with concavity > 80  degrees                     : 15
    faces with skewness > 4   (internal) or 20  (boundary) : 0
    faces with interpolation weights (0..1)  < 0.05        : 0
    faces with volume ratio of neighbour cells < 0.01      : 0
    faces with face twist < 0.02                           : 0
    faces on cells with determinant < 0.001                : 0

Scaling iteration 6
Moving mesh using displacement scaling : min:0  max:1
Checking faces in error :
    non-orthogonality > 65  degrees                        : 35084
    faces with concavity > 80  degrees                     : 7
    faces with skewness > 4   (internal) or 20  (boundary) : 0
    faces with interpolation weights (0..1)  < 0.05        : 0
    faces with volume ratio of neighbour cells < 0.01      : 0
    faces with face twist < 0.02                           : 0
    faces on cells with determinant < 0.001                : 0

Scaling iteration 7
Moving mesh using displacement scaling : min:0  max:1
Checking faces in error :
    non-orthogonality > 65  degrees                        : 35084
    faces with concavity > 80  degrees                     : 2
    faces with skewness > 4   (internal) or 20  (boundary) : 0
    faces with interpolation weights (0..1)  < 0.05        : 0
    faces with volume ratio of neighbour cells < 0.01      : 0
    faces with face twist < 0.02                           : 0
    faces on cells with determinant < 0.001                : 0

Scaling iteration 8
Moving mesh using displacement scaling : min:0  max:1
Checking faces in error :
    non-orthogonality > 65  degrees                        : 35084
    faces with concavity > 80  degrees                     : 2
    faces with skewness > 4   (internal) or 20  (boundary) : 0
    faces with interpolation weights (0..1)  < 0.05        : 0
    faces with volume ratio of neighbour cells < 0.01      : 0
    faces with face twist < 0.02                           : 0
    faces on cells with determinant < 0.001                : 0

Scaling iteration 9
Moving mesh using displacement scaling : min:0  max:1
Checking faces in error :
    non-orthogonality > 65  degrees                        : 35084
    faces with concavity > 80  degrees                     : 1
    faces with skewness > 4   (internal) or 20  (boundary) : 0
    faces with interpolation weights (0..1)  < 0.05        : 0
    faces with volume ratio of neighbour cells < 0.01      : 0
    faces with face twist < 0.02                           : 0
    faces on cells with determinant < 0.001                : 0

Patch points smoothed in = 13.5811 s



Morph iteration 0
-----------------
Calculating patchDisplacement as distance to nearest surface point ...
Wanted displacement : average:2.20865 min:0 max:12.94
Calculated surface displacement in = 0.023299 s


Detecting near surfaces ...
Overriding nearest with intersection of close gaps at 374 out of 12142 points.
Overriding displacement on features :
   implicit features    : true
   explicit features    : true
   multi-patch features : false

Detected 491 baffle edges out of 23884 edges.
Initially selected 6646 points out of 12142 for reverse attraction.
Selected 10609 points out of 12142 for reverse attraction.
Stringing feature edges : changed 964 points
Stringing feature edges : changed 139 points
Stringing feature edges : changed 33 points
Stringing feature edges : changed 12 points
Stringing feature edges : changed 4 points
Stringing feature edges : changed 2 points
Stringing feature edges : changed 0 points
Attraction:
     linear   : max:(-12.1781 4.3746 4.44089e-16) avg:(-0.044825 -0.0318339 -0.0598503)
     feature  : max:(-14.4475 8.61637 0) avg:(0.00159213 -0.00972973 0.0455518)
Feature analysis : total master points:12142 attraction to :
    feature point   : 955
    feature edge    : 3865
    nearest surface : 0
    rest            : 7322

--> FOAM Warning : Displacement (0.000851575 -0.000175543 0.0121042) at mesh point 68504 coord (230.974 -87.9216 5.68958) points through the surrounding patch faces
Smoothing displacement ...
Iteration 0
Iteration 10
Iteration 20
Iteration 30
Iteration 40
Iteration 50
Iteration 60
Iteration 70
Iteration 80
Iteration 90
Displacement smoothed in = 0.794272 s


Moving mesh ...

Iteration 0
Moving mesh using displacement scaling : min:1  max:1
Checking faces in error :
    non-orthogonality > 65  degrees                        : 35098
    faces with concavity > 80  degrees                     : 7
    faces with skewness > 4   (internal) or 20  (boundary) : 0
    faces with interpolation weights (0..1)  < 0.05        : 0
    faces with volume ratio of neighbour cells < 0.01      : 0
    faces with face twist < 0.02                           : 0
    faces on cells with determinant < 0.001                : 0

Iteration 1
Moving mesh using displacement scaling : min:0.75  max:1
Checking faces in error :
    non-orthogonality > 65  degrees                        : 35094
    faces with concavity > 80  degrees                     : 6
    faces with skewness > 4   (internal) or 20  (boundary) : 0
    faces with interpolation weights (0..1)  < 0.05        : 0
    faces with volume ratio of neighbour cells < 0.01      : 0
    faces with face twist < 0.02                           : 0
    faces on cells with determinant < 0.001                : 0

Iteration 2
Moving mesh using displacement scaling : min:0.5625  max:1
Checking faces in error :
    non-orthogonality > 65  degrees                        : 35091
    faces with concavity > 80  degrees                     : 5
    faces with skewness > 4   (internal) or 20  (boundary) : 0
    faces with interpolation weights (0..1)  < 0.05        : 0
    faces with volume ratio of neighbour cells < 0.01      : 0
    faces with face twist < 0.02                           : 0
    faces on cells with determinant < 0.001                : 0

Iteration 3
Moving mesh using displacement scaling : min:0.421875  max:1
Checking faces in error :
    non-orthogonality > 65  degrees                        : 35087
    faces with concavity > 80  degrees                     : 4
    faces with skewness > 4   (internal) or 20  (boundary) : 0
    faces with interpolation weights (0..1)  < 0.05        : 0
    faces with volume ratio of neighbour cells < 0.01      : 0
    faces with face twist < 0.02                           : 0
    faces on cells with determinant < 0.001                : 0

Iteration 4
Moving mesh using displacement scaling : min:0.316406  max:1
Checking faces in error :
    non-orthogonality > 65  degrees                        : 35087
    faces with concavity > 80  degrees                     : 2
    faces with skewness > 4   (internal) or 20  (boundary) : 0
    faces with interpolation weights (0..1)  < 0.05        : 0
    faces with volume ratio of neighbour cells < 0.01      : 0
    faces with face twist < 0.02                           : 0
    faces on cells with determinant < 0.001                : 0

Iteration 5
Displacement scaling for error reduction set to 0.
Moving mesh using displacement scaling : min:0.237305  max:1
Checking faces in error :
    non-orthogonality > 65  degrees                        : 35089
    faces with concavity > 80  degrees                     : 2
    faces with skewness > 4   (internal) or 20  (boundary) : 0
    faces with interpolation weights (0..1)  < 0.05        : 0
    faces with volume ratio of neighbour cells < 0.01      : 0
    faces with face twist < 0.02                           : 0
    faces on cells with determinant < 0.001                : 0

Iteration 6
Moving mesh using displacement scaling : min:0  max:1
Checking faces in error :
    non-orthogonality > 65  degrees                        : 35086
    faces with concavity > 80  degrees                     : 3
    faces with skewness > 4   (internal) or 20  (boundary) : 0
    faces with interpolation weights (0..1)  < 0.05        : 0
    faces with volume ratio of neighbour cells < 0.01      : 0
    faces with face twist < 0.02                           : 0
    faces on cells with determinant < 0.001                : 0

Iteration 7
Moving mesh using displacement scaling : min:0  max:1
Checking faces in error :
    non-orthogonality > 65  degrees                        : 35084
    faces with concavity > 80  degrees                     : 0
    faces with skewness > 4   (internal) or 20  (boundary) : 0
    faces with interpolation weights (0..1)  < 0.05        : 0
    faces with volume ratio of neighbour cells < 0.01      : 0
    faces with face twist < 0.02                           : 0
    faces on cells with determinant < 0.001                : 0
Successfully moved mesh
Moved mesh in = 3.38102 s



Morph iteration 1
-----------------
Calculating patchDisplacement as distance to nearest surface point ...
Wanted displacement : average:2.13518 min:0 max:12.683
Calculated surface displacement in = 0.023101 s


Detecting near surfaces ...
Overriding nearest with intersection of close gaps at 366 out of 12142 points.
Overriding displacement on features :
   implicit features    : true
   explicit features    : true
   multi-patch features : false

Detected 490 baffle edges out of 23884 edges.
Initially selected 6636 points out of 12142 for reverse attraction.
Selected 10606 points out of 12142 for reverse attraction.
Stringing feature edges : changed 951 points
Stringing feature edges : changed 129 points
Stringing feature edges : changed 29 points
Stringing feature edges : changed 10 points
Stringing feature edges : changed 5 points
Stringing feature edges : changed 2 points
Stringing feature edges : changed 0 points
Attraction:
     linear   : max:(-11.9363 4.28773 8.88178e-16) avg:(-0.0474979 -0.0288029 -0.0585037)
     feature  : max:(17.7686 -1.31709 -4.44089e-16) avg:(-0.000365354 -0.00133881 0.0480851)
Feature analysis : total master points:12142 attraction to :
    feature point   : 953
    feature edge    : 3861
    nearest surface : 0
    rest            : 7328

--> FOAM Warning : Displacement (0.00206942 0.000328735 0.0482047) at mesh point 68504 coord (230.974 -87.9216 5.69488) points through the surrounding patch faces
Smoothing displacement ...
Iteration 0
Iteration 10
Iteration 20
Iteration 30
Iteration 40
Iteration 50
Iteration 60
Iteration 70
Iteration 80
Iteration 90
Displacement smoothed in = 0.790174 s


Moving mesh ...

Iteration 0
Moving mesh using displacement scaling : min:1  max:1
Checking faces in error :
    non-orthogonality > 65  degrees                        : 35134
    faces with concavity > 80  degrees                     : 11
    faces with skewness > 4   (internal) or 20  (boundary) : 0
    faces with interpolation weights (0..1)  < 0.05        : 0
    faces with volume ratio of neighbour cells < 0.01      : 0
    faces with face twist < 0.02                           : 0
    faces on cells with determinant < 0.001                : 0

Iteration 1
Moving mesh using displacement scaling : min:0.75  max:1
Checking faces in error :
    non-orthogonality > 65  degrees                        : 35124
    faces with concavity > 80  degrees                     : 10
    faces with skewness > 4   (internal) or 20  (boundary) : 0
    faces with interpolation weights (0..1)  < 0.05        : 0
    faces with volume ratio of neighbour cells < 0.01      : 0
    faces with face twist < 0.02                           : 0
    faces on cells with determinant < 0.001                : 0

Iteration 2
Moving mesh using displacement scaling : min:0.5625  max:1
Checking faces in error :
    non-orthogonality > 65  degrees                        : 35113
    faces with concavity > 80  degrees                     : 8
    faces with skewness > 4   (internal) or 20  (boundary) : 0
    faces with interpolation weights (0..1)  < 0.05        : 0
    faces with volume ratio of neighbour cells < 0.01      : 0
    faces with face twist < 0.02                           : 0
    faces on cells with determinant < 0.001                : 0

Iteration 3
Moving mesh using displacement scaling : min:0.421875  max:1
Checking faces in error :
    non-orthogonality > 65  degrees                        : 35104
    faces with concavity > 80  degrees                     : 5
    faces with skewness > 4   (internal) or 20  (boundary) : 0
    faces with interpolation weights (0..1)  < 0.05        : 0
    faces with volume ratio of neighbour cells < 0.01      : 0
    faces with face twist < 0.02                           : 0
    faces on cells with determinant < 0.001                : 0

Iteration 4
Moving mesh using displacement scaling : min:0.316406  max:1
Checking faces in error :
    non-orthogonality > 65  degrees                        : 35102
    faces with concavity > 80  degrees                     : 5
    faces with skewness > 4   (internal) or 20  (boundary) : 0
    faces with interpolation weights (0..1)  < 0.05        : 0
    faces with volume ratio of neighbour cells < 0.01      : 0
    faces with face twist < 0.02                           : 0
    faces on cells with determinant < 0.001                : 0

Iteration 5
Displacement scaling for error reduction set to 0.
Moving mesh using displacement scaling : min:0.237305  max:1
Checking faces in error :
    non-orthogonality > 65  degrees                        : 35100
    faces with concavity > 80  degrees                     : 6
    faces with skewness > 4   (internal) or 20  (boundary) : 0
    faces with interpolation weights (0..1)  < 0.05        : 0
    faces with volume ratio of neighbour cells < 0.01      : 0
    faces with face twist < 0.02                           : 0
    faces on cells with determinant < 0.001                : 0

Iteration 6
Moving mesh using displacement scaling : min:0  max:1
Checking faces in error :
    non-orthogonality > 65  degrees                        : 35088
    faces with concavity > 80  degrees                     : 3
    faces with skewness > 4   (internal) or 20  (boundary) : 0
    faces with interpolation weights (0..1)  < 0.05        : 0
    faces with volume ratio of neighbour cells < 0.01      : 0
    faces with face twist < 0.02                           : 0
    faces on cells with determinant < 0.001                : 0

Iteration 7
Moving mesh using displacement scaling : min:0  max:1
Checking faces in error :
    non-orthogonality > 65  degrees                        : 35084
    faces with concavity > 80  degrees                     : 1
    faces with skewness > 4   (internal) or 20  (boundary) : 0
    faces with interpolation weights (0..1)  < 0.05        : 0
    faces with volume ratio of neighbour cells < 0.01      : 0
    faces with face twist < 0.02                           : 0
    faces on cells with determinant < 0.001                : 0

Iteration 8
Moving mesh using displacement scaling : min:0  max:1
Checking faces in error :
    non-orthogonality > 65  degrees                        : 35085
    faces with concavity > 80  degrees                     : 0
    faces with skewness > 4   (internal) or 20  (boundary) : 0
    faces with interpolation weights (0..1)  < 0.05        : 0
    faces with volume ratio of neighbour cells < 0.01      : 0
    faces with face twist < 0.02                           : 0
    faces on cells with determinant < 0.001                : 0

Iteration 9
Moving mesh using displacement scaling : min:0  max:1
Checking faces in error :
    non-orthogonality > 65  degrees                        : 35084
    faces with concavity > 80  degrees                     : 0
    faces with skewness > 4   (internal) or 20  (boundary) : 0
    faces with interpolation weights (0..1)  < 0.05        : 0
    faces with volume ratio of neighbour cells < 0.01      : 0
    faces with face twist < 0.02                           : 0
    faces on cells with determinant < 0.001                : 0
Successfully moved mesh
Moved mesh in = 4.37653 s



Morph iteration 2
-----------------
Calculating patchDisplacement as distance to nearest surface point ...
Wanted displacement : average:2.01087 min:0 max:12.2273
Calculated surface displacement in = 0.02264 s


Detecting near surfaces ...
Overriding nearest with intersection of close gaps at 347 out of 12142 points.
Overriding displacement on features :
   implicit features    : true
   explicit features    : true
   multi-patch features : false

Detected 495 baffle edges out of 23884 edges.
Initially selected 6650 points out of 12142 for reverse attraction.
Selected 10631 points out of 12142 for reverse attraction.
Stringing feature edges : changed 938 points
Stringing feature edges : changed 136 points
Stringing feature edges : changed 31 points
Stringing feature edges : changed 10 points
Stringing feature edges : changed 5 points
Stringing feature edges : changed 2 points
Stringing feature edges : changed 0 points
Attraction:
     linear   : max:(-11.5074 4.13367 -8.88178e-16) avg:(-0.0508385 -0.0259045 -0.0563362)
     feature  : max:(17.433 -1.41357 -4.44089e-16) avg:(-0.00246608 -0.00238217 0.050156)
Feature analysis : total master points:12142 attraction to :
    feature point   : 947
    feature edge    : 3876
    nearest surface : 0
    rest            : 7319

--> FOAM Warning : Displacement (1.93501e-05 -0.00393805 0.107376) at mesh point 68504 coord (230.975 -87.9216 5.70694) points through the surrounding patch faces
Smoothing displacement ...
Iteration 0
Iteration 10
Iteration 20
Iteration 30
Iteration 40
Iteration 50
Iteration 60
Iteration 70
Iteration 80
Iteration 90
Displacement smoothed in = 0.792273 s


Moving mesh ...

Iteration 0
Moving mesh using displacement scaling : min:1  max:1
Checking faces in error :
    non-orthogonality > 65  degrees                        : 35210
    faces with concavity > 80  degrees                     : 37
    faces with skewness > 4   (internal) or 20  (boundary) : 0
    faces with interpolation weights (0..1)  < 0.05        : 0
    faces with volume ratio of neighbour cells < 0.01      : 0
    faces with face twist < 0.02                           : 25
    faces on cells with determinant < 0.001                : 3

Iteration 1
Moving mesh using displacement scaling : min:0.75  max:1
Checking faces in error :
    non-orthogonality > 65  degrees                        : 35174
    faces with concavity > 80  degrees                     : 23
    faces with skewness > 4   (internal) or 20  (boundary) : 0
    faces with interpolation weights (0..1)  < 0.05        : 0
    faces with volume ratio of neighbour cells < 0.01      : 0
    faces with face twist < 0.02                           : 7
    faces on cells with determinant < 0.001                : 0

Iteration 2
Moving mesh using displacement scaling : min:0.5625  max:1
Checking faces in error :
    non-orthogonality > 65  degrees                        : 35157
    faces with concavity > 80  degrees                     : 21
    faces with skewness > 4   (internal) or 20  (boundary) : 0
    faces with interpolation weights (0..1)  < 0.05        : 0
    faces with volume ratio of neighbour cells < 0.01      : 0
    faces with face twist < 0.02                           : 2
    faces on cells with determinant < 0.001                : 0

Iteration 3
Moving mesh using displacement scaling : min:0.421875  max:1
Checking faces in error :
    non-orthogonality > 65  degrees                        : 35141
    faces with concavity > 80  degrees                     : 16
    faces with skewness > 4   (internal) or 20  (boundary) : 0
    faces with interpolation weights (0..1)  < 0.05        : 0
    faces with volume ratio of neighbour cells < 0.01      : 0
    faces with face twist < 0.02                           : 0
    faces on cells with determinant < 0.001                : 0

Iteration 4
Moving mesh using displacement scaling : min:0.316406  max:1
Checking faces in error :
    non-orthogonality > 65  degrees                        : 35134
    faces with concavity > 80  degrees                     : 11
    faces with skewness > 4   (internal) or 20  (boundary) : 0
    faces with interpolation weights (0..1)  < 0.05        : 0
    faces with volume ratio of neighbour cells < 0.01      : 0
    faces with face twist < 0.02                           : 0
    faces on cells with determinant < 0.001                : 0

Iteration 5
Displacement scaling for error reduction set to 0.
Moving mesh using displacement scaling : min:0.237305  max:1
Checking faces in error :
    non-orthogonality > 65  degrees                        : 35126
    faces with concavity > 80  degrees                     : 10
    faces with skewness > 4   (internal) or 20  (boundary) : 0
    faces with interpolation weights (0..1)  < 0.05        : 0
    faces with volume ratio of neighbour cells < 0.01      : 0
    faces with face twist < 0.02                           : 0
    faces on cells with determinant < 0.001                : 0

Iteration 6
Moving mesh using displacement scaling : min:0  max:1
Checking faces in error :
    non-orthogonality > 65  degrees                        : 35096
    faces with concavity > 80  degrees                     : 10
    faces with skewness > 4   (internal) or 20  (boundary) : 0
    faces with interpolation weights (0..1)  < 0.05        : 0
    faces with volume ratio of neighbour cells < 0.01      : 0
    faces with face twist < 0.02                           : 0
    faces on cells with determinant < 0.001                : 0

Iteration 7
Moving mesh using displacement scaling : min:0  max:1
Checking faces in error :
    non-orthogonality > 65  degrees                        : 35084
    faces with concavity > 80  degrees                     : 2
    faces with skewness > 4   (internal) or 20  (boundary) : 0
    faces with interpolation weights (0..1)  < 0.05        : 0
    faces with volume ratio of neighbour cells < 0.01      : 0
    faces with face twist < 0.02                           : 0
    faces on cells with determinant < 0.001                : 0

Iteration 8
Moving mesh using displacement scaling : min:0  max:1
Checking faces in error :
    non-orthogonality > 65  degrees                        : 35086
    faces with concavity > 80  degrees                     : 1
    faces with skewness > 4   (internal) or 20  (boundary) : 0
    faces with interpolation weights (0..1)  < 0.05        : 0
    faces with volume ratio of neighbour cells < 0.01      : 0
    faces with face twist < 0.02                           : 0
    faces on cells with determinant < 0.001                : 0

Iteration 9
Moving mesh using displacement scaling : min:0  max:1
Checking faces in error :
    non-orthogonality > 65  degrees                        : 35085
    faces with concavity > 80  degrees                     : 0
    faces with skewness > 4   (internal) or 20  (boundary) : 0
    faces with interpolation weights (0..1)  < 0.05        : 0
    faces with volume ratio of neighbour cells < 0.01      : 0
    faces with face twist < 0.02                           : 0
    faces on cells with determinant < 0.001                : 0
Moved mesh in = 4.79087 s


--> FOAM Warning : 
    From function void Foam::snappySnapDriver::doSnap(const Foam::dictionary&, const Foam::dictionary&, Foam::scalar, Foam::scalar, const Foam::snapParameters&)
    in file snappyHexMeshDriver/snappySnapDriver.C at line 2729
    Did not successfully snap mesh. Continuing to snap to resolve easy
    surfaces but the resulting mesh will not satisfy your quality constraints


Morph iteration 3
-----------------
Calculating patchDisplacement as distance to nearest surface point ...
Wanted displacement : average:1.85207 min:0 max:11.6117
Calculated surface displacement in = 0.022176 s


Detecting near surfaces ...
Overriding nearest with intersection of close gaps at 339 out of 12142 points.
Overriding displacement on features :
   implicit features    : true
   explicit features    : true
   multi-patch features : false

Detected 530 baffle edges out of 23884 edges.
Initially selected 6686 points out of 12142 for reverse attraction.
Selected 10651 points out of 12142 for reverse attraction.
Stringing feature edges : changed 950 points
Stringing feature edges : changed 144 points
Stringing feature edges : changed 33 points
Stringing feature edges : changed 12 points
Stringing feature edges : changed 7 points
Stringing feature edges : changed 2 points
Stringing feature edges : changed 0 points
Attraction:
     linear   : max:(-10.9281 3.92556 -8.88178e-16) avg:(-0.0523316 -0.0242982 -0.0538534)
     feature  : max:(11.2524 13.2363 0) avg:(-0.00729289 -0.00226715 0.0566987)
Feature analysis : total master points:12142 attraction to :
    feature point   : 964
    feature edge    : 3878
    nearest surface : 0
    rest            : 7300

--> FOAM Warning : Displacement (-0.000883349 -0.00624319 0.186846) at mesh point 68504 coord (230.975 -87.9225 5.73221) points through the surrounding patch faces
Smoothing displacement ...
Iteration 0
Iteration 10
Iteration 20
Iteration 30
Iteration 40
Iteration 50
Iteration 60
Iteration 70
Iteration 80
Iteration 90
Displacement smoothed in = 0.809373 s


Moving mesh ...

Iteration 0
Moving mesh using displacement scaling : min:1  max:1
Checking faces in error :
    non-orthogonality > 65  degrees                        : 35356
    faces with concavity > 80  degrees                     : 69
    faces with skewness > 4   (internal) or 20  (boundary) : 0
    faces with interpolation weights (0..1)  < 0.05        : 0
    faces with volume ratio of neighbour cells < 0.01      : 0
    faces with face twist < 0.02                           : 185
    faces on cells with determinant < 0.001                : 1

Iteration 1
Moving mesh using displacement scaling : min:0.75  max:1
Checking faces in error :
    non-orthogonality > 65  degrees                        : 35283
    faces with concavity > 80  degrees                     : 43
    faces with skewness > 4   (internal) or 20  (boundary) : 0
    faces with interpolation weights (0..1)  < 0.05        : 0
    faces with volume ratio of neighbour cells < 0.01      : 0
    faces with face twist < 0.02                           : 92
    faces on cells with determinant < 0.001                : 3

Iteration 2
Moving mesh using displacement scaling : min:0.5625  max:1
Checking faces in error :
    non-orthogonality > 65  degrees                        : 35234
    faces with concavity > 80  degrees                     : 38
    faces with skewness > 4   (internal) or 20  (boundary) : 0
    faces with interpolation weights (0..1)  < 0.05        : 0
    faces with volume ratio of neighbour cells < 0.01      : 0
    faces with face twist < 0.02                           : 45
    faces on cells with determinant < 0.001                : 0

Iteration 3
Moving mesh using displacement scaling : min:0.421875  max:1
Checking faces in error :
    non-orthogonality > 65  degrees                        : 35199
    faces with concavity > 80  degrees                     : 28
    faces with skewness > 4   (internal) or 20  (boundary) : 0
    faces with interpolation weights (0..1)  < 0.05        : 0
    faces with volume ratio of neighbour cells < 0.01      : 0
    faces with face twist < 0.02                           : 23
    faces on cells with determinant < 0.001                : 0

Iteration 4
Moving mesh using displacement scaling : min:0.316406  max:1
Checking faces in error :
    non-orthogonality > 65  degrees                        : 35180
    faces with concavity > 80  degrees                     : 24
    faces with skewness > 4   (internal) or 20  (boundary) : 0
    faces with interpolation weights (0..1)  < 0.05        : 0
    faces with volume ratio of neighbour cells < 0.01      : 0
    faces with face twist < 0.02                           : 9
    faces on cells with determinant < 0.001                : 0

Iteration 5
Displacement scaling for error reduction set to 0.
Moving mesh using displacement scaling : min:0.237305  max:1
Checking faces in error :
    non-orthogonality > 65  degrees                        : 35163
    faces with concavity > 80  degrees                     : 20
    faces with skewness > 4   (internal) or 20  (boundary) : 0
    faces with interpolation weights (0..1)  < 0.05        : 0
    faces with volume ratio of neighbour cells < 0.01      : 0
    faces with face twist < 0.02                           : 6
    faces on cells with determinant < 0.001                : 0

Iteration 6
Moving mesh using displacement scaling : min:0  max:1
Checking faces in error :
    non-orthogonality > 65  degrees                        : 35118
    faces with concavity > 80  degrees                     : 20
    faces with skewness > 4   (internal) or 20  (boundary) : 0
    faces with interpolation weights (0..1)  < 0.05        : 0
    faces with volume ratio of neighbour cells < 0.01      : 0
    faces with face twist < 0.02                           : 9
    faces on cells with determinant < 0.001                : 0

Iteration 7
Moving mesh using displacement scaling : min:0  max:1
Checking faces in error :
    non-orthogonality > 65  degrees                        : 35087
    faces with concavity > 80  degrees                     : 2
    faces with skewness > 4   (internal) or 20  (boundary) : 0
    faces with interpolation weights (0..1)  < 0.05        : 0
    faces with volume ratio of neighbour cells < 0.01      : 0
    faces with face twist < 0.02                           : 1
    faces on cells with determinant < 0.001                : 0

Iteration 8
Moving mesh using displacement scaling : min:0  max:1
Checking faces in error :
    non-orthogonality > 65  degrees                        : 35085
    faces with concavity > 80  degrees                     : 0
    faces with skewness > 4   (internal) or 20  (boundary) : 0
    faces with interpolation weights (0..1)  < 0.05        : 0
    faces with volume ratio of neighbour cells < 0.01      : 0
    faces with face twist < 0.02                           : 0
    faces on cells with determinant < 0.001                : 0

Iteration 9
Moving mesh using displacement scaling : min:0  max:1
Checking faces in error :
    non-orthogonality > 65  degrees                        : 35085
    faces with concavity > 80  degrees                     : 0
    faces with skewness > 4   (internal) or 20  (boundary) : 0
    faces with interpolation weights (0..1)  < 0.05        : 0
    faces with volume ratio of neighbour cells < 0.01      : 0
    faces with face twist < 0.02                           : 1
    faces on cells with determinant < 0.001                : 0
Moved mesh in = 4.77212 s


--> FOAM Warning : 
    From function void Foam::snappySnapDriver::doSnap(const Foam::dictionary&, const Foam::dictionary&, Foam::scalar, Foam::scalar, const Foam::snapParameters&)
    in file snappyHexMeshDriver/snappySnapDriver.C at line 2729
    Did not successfully snap mesh. Continuing to snap to resolve easy
    surfaces but the resulting mesh will not satisfy your quality constraints


Morph iteration 4
-----------------
Calculating patchDisplacement as distance to nearest surface point ...
Wanted displacement : average:1.68862 min:0 max:10.9087
Calculated surface displacement in = 0.021465 s


Detecting near surfaces ...
Overriding nearest with intersection of close gaps at 337 out of 12142 points.
Overriding displacement on features :
   implicit features    : true
   explicit features    : true
   multi-patch features : false

Detected 593 baffle edges out of 23884 edges.
Initially selected 6701 points out of 12142 for reverse attraction.
Selected 10658 points out of 12142 for reverse attraction.
Stringing feature edges : changed 965 points
Stringing feature edges : changed 143 points
Stringing feature edges : changed 32 points
Stringing feature edges : changed 15 points
Stringing feature edges : changed 3 points
Stringing feature edges : changed 0 points
Attraction:
     linear   : max:(-10.2664 3.6879 8.88178e-16) avg:(-0.053689 -0.0215131 -0.0520276)
     feature  : max:(-15.2448 6.89638 0) avg:(-0.00943386 -0.00800858 0.0605049)
Feature analysis : total master points:12142 attraction to :
    feature point   : 975
    feature edge    : 3898
    nearest surface : 0
    rest            : 7269

--> FOAM Warning : Displacement (-0.00216041 -0.00888487 0.282329) at mesh point 68504 coord (230.974 -87.9238 5.77068) points through the surrounding patch faces
Smoothing displacement ...
Iteration 0
Iteration 10
Iteration 20
Iteration 30
Iteration 40
Iteration 50
Iteration 60
Iteration 70
Iteration 80
Iteration 90
Displacement smoothed in = 0.815915 s


Moving mesh ...

Iteration 0
Moving mesh using displacement scaling : min:1  max:1
Checking faces in error :
    non-orthogonality > 65  degrees                        : 35770
    faces with concavity > 80  degrees                     : 113
    faces with skewness > 4   (internal) or 20  (boundary) : 0
    faces with interpolation weights (0..1)  < 0.05        : 1
    faces with volume ratio of neighbour cells < 0.01      : 0
    faces with face twist < 0.02                           : 462
    faces on cells with determinant < 0.001                : 0

Iteration 1
Moving mesh using displacement scaling : min:0.75  max:1
Checking faces in error :
    non-orthogonality > 65  degrees                        : 35517
    faces with concavity > 80  degrees                     : 82
    faces with skewness > 4   (internal) or 20  (boundary) : 0
    faces with interpolation weights (0..1)  < 0.05        : 1
    faces with volume ratio of neighbour cells < 0.01      : 0
    faces with face twist < 0.02                           : 279
    faces on cells with determinant < 0.001                : 1

Iteration 2
Moving mesh using displacement scaling : min:0.5625  max:1
Checking faces in error :
    non-orthogonality > 65  degrees                        : 35371
    faces with concavity > 80  degrees                     : 61
    faces with skewness > 4   (internal) or 20  (boundary) : 0
    faces with interpolation weights (0..1)  < 0.05        : 0
    faces with volume ratio of neighbour cells < 0.01      : 0
    faces with face twist < 0.02                           : 188
    faces on cells with determinant < 0.001                : 2

Iteration 3
Moving mesh using displacement scaling : min:0.421875  max:1
Checking faces in error :
    non-orthogonality > 65  degrees                        : 35298
    faces with concavity > 80  degrees                     : 54
    faces with skewness > 4   (internal) or 20  (boundary) : 0
    faces with interpolation weights (0..1)  < 0.05        : 0
    faces with volume ratio of neighbour cells < 0.01      : 0
    faces with face twist < 0.02                           : 101
    faces on cells with determinant < 0.001                : 2

Iteration 4
Moving mesh using displacement scaling : min:0.316406  max:1
Checking faces in error :
    non-orthogonality > 65  degrees                        : 35265
    faces with concavity > 80  degrees                     : 38
    faces with skewness > 4   (internal) or 20  (boundary) : 0
    faces with interpolation weights (0..1)  < 0.05        : 0
    faces with volume ratio of neighbour cells < 0.01      : 0
    faces with face twist < 0.02                           : 62
    faces on cells with determinant < 0.001                : 0

Iteration 5
Displacement scaling for error reduction set to 0.
Moving mesh using displacement scaling : min:0.237305  max:1
Checking faces in error :
    non-orthogonality > 65  degrees                        : 35227
    faces with concavity > 80  degrees                     : 32
    faces with skewness > 4   (internal) or 20  (boundary) : 0
    faces with interpolation weights (0..1)  < 0.05        : 0
    faces with volume ratio of neighbour cells < 0.01      : 0
    faces with face twist < 0.02                           : 38
    faces on cells with determinant < 0.001                : 0

Iteration 6
Moving mesh using displacement scaling : min:0  max:1
Checking faces in error :
    non-orthogonality > 65  degrees                        : 35147
    faces with concavity > 80  degrees                     : 24
    faces with skewness > 4   (internal) or 20  (boundary) : 0
    faces with interpolation weights (0..1)  < 0.05        : 0
    faces with volume ratio of neighbour cells < 0.01      : 0
    faces with face twist < 0.02                           : 13
    faces on cells with determinant < 0.001                : 0

Iteration 7
Moving mesh using displacement scaling : min:0  max:1
Checking faces in error :
    non-orthogonality > 65  degrees                        : 35092
    faces with concavity > 80  degrees                     : 3
    faces with skewness > 4   (internal) or 20  (boundary) : 0
    faces with interpolation weights (0..1)  < 0.05        : 0
    faces with volume ratio of neighbour cells < 0.01      : 0
    faces with face twist < 0.02                           : 6
    faces on cells with determinant < 0.001                : 0

Iteration 8
Moving mesh using displacement scaling : min:0  max:1
Checking faces in error :
    non-orthogonality > 65  degrees                        : 35086
    faces with concavity > 80  degrees                     : 0
    faces with skewness > 4   (internal) or 20  (boundary) : 0
    faces with interpolation weights (0..1)  < 0.05        : 0
    faces with volume ratio of neighbour cells < 0.01      : 0
    faces with face twist < 0.02                           : 3
    faces on cells with determinant < 0.001                : 0

Iteration 9
Moving mesh using displacement scaling : min:0  max:1
Checking faces in error :
    non-orthogonality > 65  degrees                        : 35085
    faces with concavity > 80  degrees                     : 0
    faces with skewness > 4   (internal) or 20  (boundary) : 0
    faces with interpolation weights (0..1)  < 0.05        : 0
    faces with volume ratio of neighbour cells < 0.01      : 0
    faces with face twist < 0.02                           : 3
    faces on cells with determinant < 0.001                : 0
Moved mesh in = 4.76675 s


--> FOAM Warning : 
    From function void Foam::snappySnapDriver::doSnap(const Foam::dictionary&, const Foam::dictionary&, Foam::scalar, Foam::scalar, const Foam::snapParameters&)
    in file snappyHexMeshDriver/snappySnapDriver.C at line 2729
    Did not successfully snap mesh. Continuing to snap to resolve easy
    surfaces but the resulting mesh will not satisfy your quality constraints


Morph iteration 5
-----------------
Calculating patchDisplacement as distance to nearest surface point ...
Wanted displacement : average:1.54816 min:0 max:10.432
Calculated surface displacement in = 0.020881 s


Detecting near surfaces ...
Overriding nearest with intersection of close gaps at 327 out of 12142 points.
Overriding displacement on features :
   implicit features    : true
   explicit features    : true
   multi-patch features : false

Detected 659 baffle edges out of 23884 edges.
Initially selected 6748 points out of 12142 for reverse attraction.
Selected 10684 points out of 12142 for reverse attraction.
Stringing feature edges : changed 997 points
Stringing feature edges : changed 146 points
Stringing feature edges : changed 31 points
Stringing feature edges : changed 12 points
Stringing feature edges : changed 2 points
Stringing feature edges : changed 0 points
Attraction:
     linear   : max:(9.57799 -4.13383 0) avg:(-0.0570222 -0.0175048 -0.0506944)
     feature  : max:(-13.6836 5.95728 0) avg:(-0.0205532 -0.00691991 0.0606342)
Feature analysis : total master points:12142 attraction to :
    feature point   : 984
    feature edge    : 3921
    nearest surface : 0
    rest            : 7237

--> FOAM Warning : Displacement (-0.00371224 -0.0118305 0.391122) at mesh point 68504 coord (230.974 -87.9251 5.81355) points through the surrounding patch faces
Smoothing displacement ...
Iteration 0
Iteration 10
Iteration 20
Iteration 30
Iteration 40
Iteration 50
Iteration 60
Iteration 70
Iteration 80
Iteration 90
Displacement smoothed in = 0.789293 s


Moving mesh ...

Iteration 0
Moving mesh using displacement scaling : min:1  max:1
Checking faces in error :
    non-orthogonality > 65  degrees                        : 36550
    faces with concavity > 80  degrees                     : 171
    faces with skewness > 4   (internal) or 20  (boundary) : 1
    faces with interpolation weights (0..1)  < 0.05        : 12
    faces with volume ratio of neighbour cells < 0.01      : 3
    faces with face twist < 0.02                           : 905
    faces on cells with determinant < 0.001                : 16

Iteration 1
Moving mesh using displacement scaling : min:0.75  max:1
Checking faces in error :
    non-orthogonality > 65  degrees                        : 36015
    faces with concavity > 80  degrees                     : 128
    faces with skewness > 4   (internal) or 20  (boundary) : 0
    faces with interpolation weights (0..1)  < 0.05        : 3
    faces with volume ratio of neighbour cells < 0.01      : 3
    faces with face twist < 0.02                           : 590
    faces on cells with determinant < 0.001                : 0

Iteration 2
Moving mesh using displacement scaling : min:0.5625  max:1
Checking faces in error :
    non-orthogonality > 65  degrees                        : 35663
    faces with concavity > 80  degrees                     : 97
    faces with skewness > 4   (internal) or 20  (boundary) : 1
    faces with interpolation weights (0..1)  < 0.05        : 1
    faces with volume ratio of neighbour cells < 0.01      : 0
    faces with face twist < 0.02                           : 383
    faces on cells with determinant < 0.001                : 1

Iteration 3
Moving mesh using displacement scaling : min:0.421875  max:1
Checking faces in error :
    non-orthogonality > 65  degrees                        : 35488
    faces with concavity > 80  degrees                     : 72
    faces with skewness > 4   (internal) or 20  (boundary) : 0
    faces with interpolation weights (0..1)  < 0.05        : 0
    faces with volume ratio of neighbour cells < 0.01      : 0
    faces with face twist < 0.02                           : 280
    faces on cells with determinant < 0.001                : 2

Iteration 4
Moving mesh using displacement scaling : min:0.316406  max:1
Checking faces in error :
    non-orthogonality > 65  degrees                        : 35378
    faces with concavity > 80  degrees                     : 65
    faces with skewness > 4   (internal) or 20  (boundary) : 0
    faces with interpolation weights (0..1)  < 0.05        : 0
    faces with volume ratio of neighbour cells < 0.01      : 0
    faces with face twist < 0.02                           : 157
    faces on cells with determinant < 0.001                : 2

Iteration 5
Displacement scaling for error reduction set to 0.
Moving mesh using displacement scaling : min:0.237305  max:1
Checking faces in error :
    non-orthogonality > 65  degrees                        : 35319
    faces with concavity > 80  degrees                     : 49
    faces with skewness > 4   (internal) or 20  (boundary) : 0
    faces with interpolation weights (0..1)  < 0.05        : 0
    faces with volume ratio of neighbour cells < 0.01      : 0
    faces with face twist < 0.02                           : 113
    faces on cells with determinant < 0.001                : 0

Iteration 6
Moving mesh using displacement scaling : min:0  max:1
Checking faces in error :
    non-orthogonality > 65  degrees                        : 35188
    faces with concavity > 80  degrees                     : 37
    faces with skewness > 4   (internal) or 20  (boundary) : 0
    faces with interpolation weights (0..1)  < 0.05        : 0
    faces with volume ratio of neighbour cells < 0.01      : 0
    faces with face twist < 0.02                           : 38
    faces on cells with determinant < 0.001                : 0

Iteration 7
Moving mesh using displacement scaling : min:0  max:1
Checking faces in error :
    non-orthogonality > 65  degrees                        : 35094
    faces with concavity > 80  degrees                     : 0
    faces with skewness > 4   (internal) or 20  (boundary) : 0
    faces with interpolation weights (0..1)  < 0.05        : 0
    faces with volume ratio of neighbour cells < 0.01      : 0
    faces with face twist < 0.02                           : 13
    faces on cells with determinant < 0.001                : 0

Iteration 8
Moving mesh using displacement scaling : min:0  max:1
Checking faces in error :
    non-orthogonality > 65  degrees                        : 35086
    faces with concavity > 80  degrees                     : 0
    faces with skewness > 4   (internal) or 20  (boundary) : 0
    faces with interpolation weights (0..1)  < 0.05        : 0
    faces with volume ratio of neighbour cells < 0.01      : 0
    faces with face twist < 0.02                           : 3
    faces on cells with determinant < 0.001                : 0

Iteration 9
Moving mesh using displacement scaling : min:0  max:1
Checking faces in error :
    non-orthogonality > 65  degrees                        : 35085
    faces with concavity > 80  degrees                     : 1
    faces with skewness > 4   (internal) or 20  (boundary) : 0
    faces with interpolation weights (0..1)  < 0.05        : 0
    faces with volume ratio of neighbour cells < 0.01      : 0
    faces with face twist < 0.02                           : 3
    faces on cells with determinant < 0.001                : 0
Moved mesh in = 4.77766 s


--> FOAM Warning : 
    From function void Foam::snappySnapDriver::doSnap(const Foam::dictionary&, const Foam::dictionary&, Foam::scalar, Foam::scalar, const Foam::snapParameters&)
    in file snappyHexMeshDriver/snappySnapDriver.C at line 2729
    Did not successfully snap mesh. Continuing to snap to resolve easy
    surfaces but the resulting mesh will not satisfy your quality constraints


Morph iteration 6
-----------------
Calculating patchDisplacement as distance to nearest surface point ...
Wanted displacement : average:1.44592 min:0 max:10.432
Calculated surface displacement in = 0.020451 s


Detecting near surfaces ...
Overriding nearest with intersection of close gaps at 328 out of 12142 points.
Overriding displacement on features :
   implicit features    : true
   explicit features    : true
   multi-patch features : false

Detected 731 baffle edges out of 23884 edges.
Initially selected 6779 points out of 12142 for reverse attraction.
Selected 10703 points out of 12142 for reverse attraction.
Stringing feature edges : changed 1047 points
Stringing feature edges : changed 141 points
Stringing feature edges : changed 26 points
Stringing feature edges : changed 12 points
Stringing feature edges : changed 2 points
Stringing feature edges : changed 0 points
Attraction:
     linear   : max:(9.57799 -4.13383 0) avg:(-0.0568617 -0.0129448 -0.0501993)
     feature  : max:(10.3187 10.151 -0.267676) avg:(-0.0197771 -0.00164081 0.0611893)
Feature analysis : total master points:12142 attraction to :
    feature point   : 976
    feature edge    : 3985
    nearest surface : 0
    rest            : 7181

--> FOAM Warning : Displacement (-0.00542917 -0.0147855 0.503175) at mesh point 68504 coord (230.973 -87.9269 5.87311) points through the surrounding patch faces
Smoothing displacement ...
Iteration 0
Iteration 10
Iteration 20
Iteration 30
Iteration 40
Iteration 50
Iteration 60
Iteration 70
Iteration 80
Iteration 90
Displacement smoothed in = 0.789191 s


Moving mesh ...

Iteration 0
Moving mesh using displacement scaling : min:1  max:1
Checking faces in error :
    non-orthogonality > 65  degrees                        : 37535
    faces with concavity > 80  degrees                     : 238
    faces with skewness > 4   (internal) or 20  (boundary) : 6
    faces with interpolation weights (0..1)  < 0.05        : 27
    faces with volume ratio of neighbour cells < 0.01      : 12
    faces with face twist < 0.02                           : 1408
    faces on cells with determinant < 0.001                : 60

Iteration 1
Moving mesh using displacement scaling : min:0.75  max:1
Checking faces in error :
    non-orthogonality > 65  degrees                        : 36691
    faces with concavity > 80  degrees                     : 182
    faces with skewness > 4   (internal) or 20  (boundary) : 1
    faces with interpolation weights (0..1)  < 0.05        : 12
[...]


Detecting near surfaces ...
Overriding nearest with intersection of close gaps at 340 out of 12142 points.
Overriding displacement on features :
   implicit features    : true
   explicit features    : true
   multi-patch features : false

Detected 865 baffle edges out of 23884 edges.
Initially selected 6842 points out of 12142 for reverse attraction.
Selected 10739 points out of 12142 for reverse attraction.
Stringing feature edges : changed 1064 points
Stringing feature edges : changed 150 points
Stringing feature edges : changed 29 points
Stringing feature edges : changed 10 points
Stringing feature edges : changed 1 points
Stringing feature edges : changed 0 points
Attraction:
     linear   : max:(9.89216 -4.26942 0) avg:(-0.0535355 -0.00923332 -0.049457)
     feature  : max:(-12.0719 -12.2613 -3.88578e-14) avg:(-0.0202387 -0.00623725 0.0650495)
Feature analysis : total master points:12142 attraction to :
    feature point   : 967
    feature edge    : 4036
    nearest surface : 0
    rest            : 7139

--> FOAM Warning : Displacement (-0.00883181 -0.020188 0.712825) at mesh point 68504 coord (230.972 -87.9312 6.01997) points through the surrounding patch faces
Smoothing displacement ...
Iteration 0
Iteration 10
Iteration 20
Iteration 30
Iteration 40
Iteration 50
Iteration 60
Iteration 70
Iteration 80
Iteration 90
Displacement smoothed in = 0.814999 s


Moving mesh ...

Iteration 0
Moving mesh using displacement scaling : min:1  max:1
Checking faces in error :
    non-orthogonality > 65  degrees                        : 39769
    faces with concavity > 80  degrees                     : 348
    faces with skewness > 4   (internal) or 20  (boundary) : 9
    faces with interpolation weights (0..1)  < 0.05        : 43
    faces with volume ratio of neighbour cells < 0.01      : 19
    faces with face twist < 0.02                           : 2539
    faces on cells with determinant < 0.001                : 137

Iteration 1
Moving mesh using displacement scaling : min:0.75  max:1
Checking faces in error :
    non-orthogonality > 65  degrees                        : 38438
    faces with concavity > 80  degrees                     : 284
    faces with skewness > 4   (internal) or 20  (boundary) : 7
    faces with interpolation weights (0..1)  < 0.05        : 35
    faces with volume ratio of neighbour cells < 0.01      : 18
    faces with face twist < 0.02                           : 1920
    faces on cells with determinant < 0.001                : 84

Iteration 2
Moving mesh using displacement scaling : min:0.5625  max:1
Checking faces in error :
    non-orthogonality > 65  degrees                        : 37408
    faces with concavity > 80  degrees                     : 226
    faces with skewness > 4   (internal) or 20  (boundary) : 5
    faces with interpolation weights (0..1)  < 0.05        : 20
    faces with volume ratio of neighbour cells < 0.01      : 9
    faces with face twist < 0.02                           : 1397
    faces on cells with determinant < 0.001                : 60

Iteration 3
Moving mesh using displacement scaling : min:0.421875  max:1
Checking faces in error :
    non-orthogonality > 65  degrees                        : 36653
    faces with concavity > 80  degrees                     : 175
    faces with skewness > 4   (internal) or 20  (boundary) : 0
    faces with interpolation weights (0..1)  < 0.05        : 9
    faces with volume ratio of neighbour cells < 0.01      : 3
    faces with face twist < 0.02                           : 991
    faces on cells with determinant < 0.001                : 19

Iteration 4
Moving mesh using displacement scaling : min:0.316406  max:1
Checking faces in error :
    non-orthogonality > 65  degrees                        : 36108
    faces with concavity > 80  degrees                     : 134
    faces with skewness > 4   (internal) or 20  (boundary) : 0
    faces with interpolation weights (0..1)  < 0.05        : 1
    faces with volume ratio of neighbour cells < 0.01      : 1
    faces with face twist < 0.02                           : 712
    faces on cells with determinant < 0.001                : 7

Iteration 5
Displacement scaling for error reduction set to 0.
Moving mesh using displacement scaling : min:0.237305  max:1
Checking faces in error :
    non-orthogonality > 65  degrees                        : 35812
    faces with concavity > 80  degrees                     : 105
    faces with skewness > 4   (internal) or 20  (boundary) : 0
    faces with interpolation weights (0..1)  < 0.05        : 1
    faces with volume ratio of neighbour cells < 0.01      : 0
    faces with face twist < 0.02                           : 485
    faces on cells with determinant < 0.001                : 1

Iteration 6
Moving mesh using displacement scaling : min:0  max:1
Checking faces in error :
    non-orthogonality > 65  degrees                        : 35261
    faces with concavity > 80  degrees                     : 30
    faces with skewness > 4   (internal) or 20  (boundary) : 0
    faces with interpolation weights (0..1)  < 0.05        : 0
    faces with volume ratio of neighbour cells < 0.01      : 0
    faces with face twist < 0.02                           : 84
    faces on cells with determinant < 0.001                : 0

Iteration 7
Moving mesh using displacement scaling : min:0  max:1
Checking faces in error :
    non-orthogonality > 65  degrees                        : 35109
    faces with concavity > 80  degrees                     : 3
    faces with skewness > 4   (internal) or 20  (boundary) : 0
    faces with interpolation weights (0..1)  < 0.05        : 0
    faces with volume ratio of neighbour cells < 0.01      : 0
    faces with face twist < 0.02                           : 12
    faces on cells with determinant < 0.001                : 0

Iteration 8
Moving mesh using displacement scaling : min:0  max:1
Checking faces in error :
    non-orthogonality > 65  degrees                        : 35085
    faces with concavity > 80  degrees                     : 0
    faces with skewness > 4   (internal) or 20  (boundary) : 0
    faces with interpolation weights (0..1)  < 0.05        : 0
    faces with volume ratio of neighbour cells < 0.01      : 0
    faces with face twist < 0.02                           : 4
    faces on cells with determinant < 0.001                : 0

Iteration 9
Moving mesh using displacement scaling : min:0  max:1
Checking faces in error :
    non-orthogonality > 65  degrees                        : 35085
    faces with concavity > 80  degrees                     : 0
    faces with skewness > 4   (internal) or 20  (boundary) : 0
    faces with interpolation weights (0..1)  < 0.05        : 0
    faces with volume ratio of neighbour cells < 0.01      : 0
    faces with face twist < 0.02                           : 3
    faces on cells with determinant < 0.001                : 0
Moved mesh in = 4.80521 s


--> FOAM Warning : 
    From function void Foam::snappySnapDriver::doSnap(const Foam::dictionary&, const Foam::dictionary&, Foam::scalar, Foam::scalar, const Foam::snapParameters&)
    in file snappyHexMeshDriver/snappySnapDriver.C at line 2729
    Did not successfully snap mesh. Continuing to snap to resolve easy
    surfaces but the resulting mesh will not satisfy your quality constraints


Morph iteration 9
-----------------
Calculating patchDisplacement as distance to nearest surface point ...
Wanted displacement : average:1.29385 min:0 max:10.9264
Calculated surface displacement in = 0.019879 s


Detecting near surfaces ...
Overriding nearest with intersection of close gaps at 344 out of 12142 points.
Overriding displacement on features :
   implicit features    : true
   explicit features    : true
   multi-patch features : false

Detected 902 baffle edges out of 23884 edges.
Initially selected 6860 points out of 12142 for reverse attraction.
Selected 10735 points out of 12142 for reverse attraction.
Stringing feature edges : changed 1050 points
Stringing feature edges : changed 173 points
Stringing feature edges : changed 36 points
Stringing feature edges : changed 10 points
Stringing feature edges : changed 1 points
Stringing feature edges : changed 0 points
Attraction:
     linear   : max:(10.0319 -4.32975 0) avg:(-0.0495442 -0.00932222 -0.0491419)
     feature  : max:(-12.0719 -12.2613 -3.88578e-14) avg:(-0.0238451 -0.00930982 0.0642684)
Feature analysis : total master points:12142 attraction to :
    feature point   : 960
    feature edge    : 4101
    nearest surface : 0
    rest            : 7081

--> FOAM Warning : Displacement (-0.0104635 -0.0227526 0.812647) at mesh point 68504 coord (230.971 -87.9331 6.08735) points through the surrounding patch faces
Smoothing displacement ...
Iteration 0
Iteration 10
Iteration 20
Iteration 30
Iteration 40
Iteration 50
Iteration 60
Iteration 70
Iteration 80
Iteration 90
Displacement smoothed in = 0.78662 s


Moving mesh ...

Iteration 0
Moving mesh using displacement scaling : min:1  max:1
Checking faces in error :
    non-orthogonality > 65  degrees                        : 39679
    faces with concavity > 80  degrees                     : 444
    faces with skewness > 4   (internal) or 20  (boundary) : 7
    faces with interpolation weights (0..1)  < 0.05        : 35
    faces with volume ratio of neighbour cells < 0.01      : 30
    faces with face twist < 0.02                           : 2686
    faces on cells with determinant < 0.001                : 147

Iteration 1
Moving mesh using displacement scaling : min:0.75  max:1
Checking faces in error :
    non-orthogonality > 65  degrees                        : 38289
    faces with concavity > 80  degrees                     : 315
    faces with skewness > 4   (internal) or 20  (boundary) : 4
    faces with interpolation weights (0..1)  < 0.05        : 30
    faces with volume ratio of neighbour cells < 0.01      : 12
    faces with face twist < 0.02                           : 1769
    faces on cells with determinant < 0.001                : 77

Iteration 2
Moving mesh using displacement scaling : min:0.5625  max:1
Checking faces in error :
    non-orthogonality > 65  degrees                        : 37283
    faces with concavity > 80  degrees                     : 219
    faces with skewness > 4   (internal) or 20  (boundary) : 6
    faces with interpolation weights (0..1)  < 0.05        : 20
    faces with volume ratio of neighbour cells < 0.01      : 0
    faces with face twist < 0.02                           : 1314
    faces on cells with determinant < 0.001                : 37

Iteration 3
Moving mesh using displacement scaling : min:0.421875  max:1
Checking faces in error :
    non-orthogonality > 65  degrees                        : 36575
    faces with concavity > 80  degrees                     : 158
    faces with skewness > 4   (internal) or 20  (boundary) : 1
    faces with interpolation weights (0..1)  < 0.05        : 5
    faces with volume ratio of neighbour cells < 0.01      : 2
    faces with face twist < 0.02                           : 915
    faces on cells with determinant < 0.001                : 17

Iteration 4
Moving mesh using displacement scaling : min:0.316406  max:1
Checking faces in error :
    non-orthogonality > 65  degrees                        : 36042
    faces with concavity > 80  degrees                     : 125
    faces with skewness > 4   (internal) or 20  (boundary) : 0
    faces with interpolation weights (0..1)  < 0.05        : 4
    faces with volume ratio of neighbour cells < 0.01      : 0
    faces with face twist < 0.02                           : 660
    faces on cells with determinant < 0.001                : 12

Iteration 5
Displacement scaling for error reduction set to 0.
Moving mesh using displacement scaling : min:0.237305  max:1
Checking faces in error :
    non-orthogonality > 65  degrees                        : 35734
    faces with concavity > 80  degrees                     : 112
    faces with skewness > 4   (internal) or 20  (boundary) : 0
    faces with interpolation weights (0..1)  < 0.05        : 0
    faces with volume ratio of neighbour cells < 0.01      : 0
    faces with face twist < 0.02                           : 438
    faces on cells with determinant < 0.001                : 9

Iteration 6
Moving mesh using displacement scaling : min:0  max:1
Checking faces in error :
    non-orthogonality > 65  degrees                        : 35203
    faces with concavity > 80  degrees                     : 19
    faces with skewness > 4   (internal) or 20  (boundary) : 0
    faces with interpolation weights (0..1)  < 0.05        : 0
    faces with volume ratio of neighbour cells < 0.01      : 0
    faces with face twist < 0.02                           : 52
    faces on cells with determinant < 0.001                : 0

Iteration 7
Moving mesh using displacement scaling : min:0  max:1
Checking faces in error :
    non-orthogonality > 65  degrees                        : 35096
    faces with concavity > 80  degrees                     : 0
    faces with skewness > 4   (internal) or 20  (boundary) : 0
    faces with interpolation weights (0..1)  < 0.05        : 0
    faces with volume ratio of neighbour cells < 0.01      : 0
    faces with face twist < 0.02                           : 7
    faces on cells with determinant < 0.001                : 0

Iteration 8
Moving mesh using displacement scaling : min:0  max:1
Checking faces in error :
    non-orthogonality > 65  degrees                        : 35085
    faces with concavity > 80  degrees                     : 4
    faces with skewness > 4   (internal) or 20  (boundary) : 0
    faces with interpolation weights (0..1)  < 0.05        : 0
    faces with volume ratio of neighbour cells < 0.01      : 0
    faces with face twist < 0.02                           : 5
    faces on cells with determinant < 0.001                : 0

Iteration 9
Moving mesh using displacement scaling : min:0  max:1
Checking faces in error :
    non-orthogonality > 65  degrees                        : 35085
    faces with concavity > 80  degrees                     : 0
    faces with skewness > 4   (internal) or 20  (boundary) : 0
    faces with interpolation weights (0..1)  < 0.05        : 0
    faces with volume ratio of neighbour cells < 0.01      : 0
    faces with face twist < 0.02                           : 3
    faces on cells with determinant < 0.001                : 0
Moved mesh in = 4.80267 s


--> FOAM Warning : 
    From function void Foam::snappySnapDriver::doSnap(const Foam::dictionary&, const Foam::dictionary&, Foam::scalar, Foam::scalar, const Foam::snapParameters&)
    in file snappyHexMeshDriver/snappySnapDriver.C at line 2729
    Did not successfully snap mesh. Continuing to snap to resolve easy
    surfaces but the resulting mesh will not satisfy your quality constraints

Repatching faces according to nearest surface ...
Repatched 0 faces in = 0.029957 s


Edge intersection testing:
    Number of edges             : 823007
    Number of edges to retest   : 165498
    Number of intersected edges : 9096
Merging 1676 sets of faces.

Edge intersection testing:
    Number of edges             : 821229
    Number of edges to retest   : 7003
    Number of intersected edges : 7564

Undo iteration 0
----------------
Checking faces in error :
    non-orthogonality > 65  degrees                        : 35211
    faces with concavity > 80  degrees                     : 0
    faces with skewness > 4   (internal) or 20  (boundary) : 0
    faces with interpolation weights (0..1)  < 0.05        : 0
    faces with volume ratio of neighbour cells < 0.01      : 0
    faces with face twist < 0.02                           : 98
    faces on cells with determinant < 0.001                : 0
Masters that need to be restored:225
Edge intersection testing:
    Number of edges             : 821514
    Number of edges to retest   : 1299
    Number of intersected edges : 7735


Undo iteration 1
----------------
Checking faces in error :
    non-orthogonality > 65  degrees                        : 35089
    faces with concavity > 80  degrees                     : 0
    faces with skewness > 4   (internal) or 20  (boundary) : 0
    faces with interpolation weights (0..1)  < 0.05        : 0
    faces with volume ratio of neighbour cells < 0.01      : 0
    faces with face twist < 0.02                           : 3
    faces on cells with determinant < 0.001                : 0
Masters that need to be restored:4
Edge intersection testing:
    Number of edges             : 821522
    Number of edges to retest   : 24
    Number of intersected edges : 7741


Undo iteration 2
----------------
Checking faces in error :
    non-orthogonality > 65  degrees                        : 35085
    faces with concavity > 80  degrees                     : 0
    faces with skewness > 4   (internal) or 20  (boundary) : 0
    faces with interpolation weights (0..1)  < 0.05        : 0
    faces with volume ratio of neighbour cells < 0.01      : 0
    faces with face twist < 0.02                           : 3
    faces on cells with determinant < 0.001                : 0
Masters that need to be restored:0

Merging all points on surface that
- are used by only two boundary faces and
- make an angle with a cosine of more than 0.866025.

Removing 1176 straight edge points ...

Edge intersection testing:
    Number of edges             : 821522
    Number of edges to retest   : 5496
    Number of intersected edges : 7719

Undo iteration 0
----------------
Checking faces in error :
    non-orthogonality > 65  degrees                        : 35103
    faces with concavity > 80  degrees                     : 3
    faces with skewness > 4   (internal) or 20  (boundary) : 0
    faces with interpolation weights (0..1)  < 0.05        : 0
    faces with volume ratio of neighbour cells < 0.01      : 0
    faces with face twist < 0.02                           : 8
    faces on cells with determinant < 0.001                : 0
Detected 11 error faces on boundaries that have been merged. These will be restored to their original faces.

Edge intersection testing:
    Number of edges             : 821522
    Number of edges to retest   : 64
    Number of intersected edges : 7722

Undo iteration 1
----------------
Checking faces in error :
    non-orthogonality > 65  degrees                        : 35102
    faces with concavity > 80  degrees                     : 0
    faces with skewness > 4   (internal) or 20  (boundary) : 0
    faces with interpolation weights (0..1)  < 0.05        : 0
    faces with volume ratio of neighbour cells < 0.01      : 0
    faces with face twist < 0.02                           : 3
    faces on cells with determinant < 0.001                : 0
Detected 0 error faces on boundaries that have been merged. These will be restored to their original faces.

Detected 35105 error faces in mesh. Restoring neighbours of faces in error.

Edge intersection testing:
    Number of edges             : 821522
    Number of edges to retest   : 307439
    Number of intersected edges : 7726
Snapped mesh : cells:259953  faces:821522  points:302176
Cells per refinement level:
    0	36614
    1	6858
    2	152470
    3	64011
Writing mesh to time constant
Wrote mesh in = 2.84578 s.
Mesh snapped in = 70.8225 s.
Checking final mesh ...
Checking faces in error :
    non-orthogonality > 65  degrees                        : 35085
    faces with concavity > 80  degrees                     : 0
    faces with skewness > 4   (internal) or 20  (boundary) : 0
    faces with interpolation weights (0..1)  < 0.05        : 0
    faces with volume ratio of neighbour cells < 0.01      : 0
    faces with face twist < 0.02                           : 3
    faces on cells with determinant < 0.001                : 0
Finished meshing with 35088 illegal faces (concave, zero area or negative cell pyramid volume)
Finished meshing in = 85.518 s.
End

