/*---------------------------------------------------------------------------*\
  =========                 |
  \\      /  F ield         | OpenFOAM: The Open Source CFD Toolbox
   \\    /   O peration     | Website:  https://openfoam.org
    \\  /    A nd           | Version:  13
     \\/     M anipulation  |
\*---------------------------------------------------------------------------*/
Build  : 13-441953dfbb42
Exec   : surfaceCheck constant/geometry/buildings.obj
Date   : May 13 2026
Time   : 02:18:28
Host   : "openfoam"
PID    : 2330
I/O    : uncollated
Case   : /home/ubuntu/OpenFOAM/ubuntu-v13/run/wStockTest/urans/winter
nProcs : 1
sigFpe : Floating point exception trapping - not supported on this platform
fileModificationChecking : Monitoring run-time modified files using timeStampMaster (fileModificationSkew 10)
allowSystemOperations : Allowing user-supplied system call operations

// * * * * * * * * * * * * * * * * * * * * * * * * * * * * * * * * * * * * * //
Reading surface from "constant/geometry/buildings.obj" ...

Statistics:
Triangles    : 5958
Vertices     : 3291
Bounding Box : (-248.744 -305.723 0) (365.292 335.308 29.3)

Region	Size
------	----
patch0	5958


Surface has no illegal triangles.

Triangle quality (equilateral=1, collapsed=0):
    0 .. 0.05  : 0.0696542
    0.05 .. 0.1  : 0.0229943
    0.1 .. 0.15  : 0.0228265
    0.15 .. 0.2  : 0.0334005
    0.2 .. 0.25  : 0.0327291
    0.25 .. 0.3  : 0.0449815
    0.3 .. 0.35  : 0.0474992
    0.35 .. 0.4  : 0.0474992
    0.4 .. 0.45  : 0.0533736
    0.45 .. 0.5  : 0.0600873
    0.5 .. 0.55  : 0.0652904
    0.55 .. 0.6  : 0.0634441
    0.6 .. 0.65  : 0.0711648
    0.65 .. 0.7  : 0.0788855
    0.7 .. 0.75  : 0.130413
    0.75 .. 0.8  : 0.140651
    0.8 .. 0.85  : 0.00704935
    0.85 .. 0.9  : 0.00234978
    0.9 .. 0.95  : 0.00335683
    0.95 .. 1  : 0.00234978

    min 4.6323e-14 for triangle 5884
    max 0.983484 for triangle 5817

Dumping bad quality faces to "badFaces"
Paste this into the input for surfaceSubset


Edges:
    min 0.473391 for edge 1301 points (267.602 192.766 0)(268.017 192.538 0)
    max 98.3235 for edge 633 points (11.5293 -6.95177 0)(-13.4795 -102.042 0)

Checking for points less than 1e-6 of bounding box ((614.037 641.031 29.3) metre) apart.
    close unconnected points 662 (49.8694 112.413 0) and 132 (49.8694 112.413 0) distance:0
    close unconnected points 673 (49.8694 112.413 6.9) and 134 (49.8694 112.413 6.9) distance:0
    close unconnected points 902 (146.535 -33.7367 0) and 882 (146.535 -33.7367 0) distance:0
    close unconnected points 1276 (203.512 181.08 0) and 1270 (203.512 181.08 0) distance:0
    close unconnected points 1111 (314.93 40.8712 0) and 1106 (314.93 40.8712 0) distance:0
    close unconnected points 1114 (314.93 40.8712 4.1) and 1110 (314.93 40.8712 4.1) distance:0
Found 6 nearby points.

Surface is closed. All edges connected to two faces.

Number of unconnected parts : 160
Splitting surface into parts ...

Writing zoning to "zone_buildings.vtk"...

writing part 0 size 108 to "buildings_0.obj"
writing part 1 size 36 to "buildings_1.obj"
writing part 2 size 44 to "buildings_2.obj"
writing part 3 size 74 to "buildings_3.obj"
writing part 4 size 12 to "buildings_4.obj"
writing part 5 size 12 to "buildings_5.obj"
writing part 6 size 56 to "buildings_6.obj"
writing part 7 size 12 to "buildings_7.obj"
writing part 8 size 32 to "buildings_8.obj"
writing part 9 size 32 to "buildings_9.obj"
writing part 10 size 28 to "buildings_10.obj"
writing part 11 size 52 to "buildings_11.obj"
writing part 12 size 16 to "buildings_12.obj"
writing part 13 size 12 to "buildings_13.obj"
writing part 14 size 12 to "buildings_14.obj"
writing part 15 size 76 to "buildings_15.obj"
writing part 16 size 68 to "buildings_16.obj"
writing part 17 size 32 to "buildings_17.obj"
writing part 18 size 40 to "buildings_18.obj"
writing part 19 size 16 to "buildings_19.obj"
writing part 20 size 20 to "buildings_20.obj"
writing part 21 size 20 to "buildings_21.obj"
writing part 22 size 36 to "buildings_22.obj"
writing part 23 size 52 to "buildings_23.obj"
writing part 24 size 12 to "buildings_24.obj"
writing part 25 size 28 to "buildings_25.obj"
writing part 26 size 44 to "buildings_26.obj"
writing part 27 size 28 to "buildings_27.obj"
writing part 28 size 44 to "buildings_28.obj"
writing part 29 size 56 to "buildings_29.obj"
writing part 30 size 24 to "buildings_30.obj"
writing part 31 size 36 to "buildings_31.obj"
writing part 32 size 12 to "buildings_32.obj"
writing part 33 size 72 to "buildings_33.obj"
writing part 34 size 44 to "buildings_34.obj"
writing part 35 size 124 to "buildings_35.obj"
writing part 36 size 140 to "buildings_36.obj"
writing part 37 size 60 to "buildings_37.obj"
writing part 38 size 92 to "buildings_38.obj"
writing part 39 size 66 to "buildings_39.obj"
writing part 40 size 28 to "buildings_40.obj"
writing part 41 size 20 to "buildings_41.obj"
writing part 42 size 58 to "buildings_42.obj"
writing part 43 size 12 to "buildings_43.obj"
writing part 44 size 16 to "buildings_44.obj"
writing part 45 size 28 to "buildings_45.obj"
writing part 46 size 16 to "buildings_46.obj"
writing part 47 size 20 to "buildings_47.obj"
writing part 48 size 28 to "buildings_48.obj"
writing part 49 size 12 to "buildings_49.obj"
writing part 50 size 12 to "buildings_50.obj"
writing part 51 size 12 to "buildings_51.obj"
writing part 52 size 12 to "buildings_52.obj"
writing part 53 size 20 to "buildings_53.obj"
writing part 54 size 12 to "buildings_54.obj"
writing part 55 size 12 to "buildings_55.obj"
writing part 56 size 12 to "buildings_56.obj"
writing part 57 size 12 to "buildings_57.obj"
writing part 58 size 12 to "buildings_58.obj"
writing part 59 size 20 to "buildings_59.obj"
writing part 60 size 12 to "buildings_60.obj"
writing part 61 size 20 to "buildings_61.obj"
writing part 62 size 28 to "buildings_62.obj"
writing part 63 size 12 to "buildings_63.obj"
writing part 64 size 124 to "buildings_64.obj"
writing part 65 size 84 to "buildings_65.obj"
writing part 66 size 28 to "buildings_66.obj"
writing part 67 size 56 to "buildings_67.obj"
writing part 68 size 12 to "buildings_68.obj"
writing part 69 size 12 to "buildings_69.obj"
writing part 70 size 12 to "buildings_70.obj"
writing part 71 size 20 to "buildings_71.obj"
writing part 72 size 12 to "buildings_72.obj"
writing part 73 size 28 to "buildings_73.obj"
writing part 74 size 20 to "buildings_74.obj"
writing part 75 size 12 to "buildings_75.obj"
writing part 76 size 12 to "buildings_76.obj"
writing part 77 size 16 to "buildings_77.obj"
writing part 78 size 12 to "buildings_78.obj"
writing part 79 size 12 to "buildings_79.obj"
writing part 80 size 12 to "buildings_80.obj"
writing part 81 size 12 to "buildings_81.obj"
writing part 82 size 36 to "buildings_82.obj"
writing part 83 size 44 to "buildings_83.obj"
writing part 84 size 12 to "buildings_84.obj"
writing part 85 size 20 to "buildings_85.obj"
writing part 86 size 28 to "buildings_86.obj"
writing part 87 size 24 to "buildings_87.obj"
writing part 88 size 20 to "buildings_88.obj"
writing part 89 size 12 to "buildings_89.obj"
writing part 90 size 12 to "buildings_90.obj"
writing part 91 size 12 to "buildings_91.obj"
writing part 92 size 16 to "buildings_92.obj"
writing part 93 size 20 to "buildings_93.obj"
writing part 94 size 20 to "buildings_94.obj"
writing part 95 size 40 to "buildings_95.obj"
writing part 96 size 28 to "buildings_96.obj"
writing part 97 size 48 to "buildings_97.obj"
writing part 98 size 12 to "buildings_98.obj"
writing part 99 size 20 to "buildings_99.obj"
writing part 100 size 12 to "buildings_100.obj"
writing part 101 size 52 to "buildings_101.obj"
writing part 102 size 12 to "buildings_102.obj"
writing part 103 size 12 to "buildings_103.obj"
writing part 104 size 12 to "buildings_104.obj"
writing part 105 size 56 to "buildings_105.obj"
writing part 106 size 200 to "buildings_106.obj"
writing part 107 size 24 to "buildings_107.obj"
writing part 108 size 44 to "buildings_108.obj"
writing part 109 size 28 to "buildings_109.obj"
writing part 110 size 20 to "buildings_110.obj"
writing part 111 size 36 to "buildings_111.obj"
writing part 112 size 20 to "buildings_112.obj"
writing part 113 size 64 to "buildings_113.obj"
writing part 114 size 44 to "buildings_114.obj"
writing part 115 size 132 to "buildings_115.obj"
writing part 116 size 12 to "buildings_116.obj"
writing part 117 size 52 to "buildings_117.obj"
writing part 118 size 48 to "buildings_118.obj"
writing part 119 size 16 to "buildings_119.obj"
writing part 120 size 12 to "buildings_120.obj"
writing part 121 size 220 to "buildings_121.obj"
writing part 122 size 20 to "buildings_122.obj"
writing part 123 size 48 to "buildings_123.obj"
writing part 124 size 60 to "buildings_124.obj"
writing part 125 size 20 to "buildings_125.obj"
writing part 126 size 20 to "buildings_126.obj"
writing part 127 size 12 to "buildings_127.obj"
writing part 128 size 32 to "buildings_128.obj"
writing part 129 size 48 to "buildings_129.obj"
writing part 130 size 92 to "buildings_130.obj"
writing part 131 size 36 to "buildings_131.obj"
writing part 132 size 20 to "buildings_132.obj"
writing part 133 size 116 to "buildings_133.obj"
writing part 134 size 12 to "buildings_134.obj"
writing part 135 size 76 to "buildings_135.obj"
writing part 136 size 36 to "buildings_136.obj"
writing part 137 size 20 to "buildings_137.obj"
writing part 138 size 12 to "buildings_138.obj"
writing part 139 size 12 to "buildings_139.obj"
writing part 140 size 12 to "buildings_140.obj"
writing part 141 size 56 to "buildings_141.obj"
writing part 142 size 272 to "buildings_142.obj"
writing part 143 size 12 to "buildings_143.obj"
writing part 144 size 12 to "buildings_144.obj"
writing part 145 size 28 to "buildings_145.obj"
writing part 146 size 28 to "buildings_146.obj"
writing part 147 size 36 to "buildings_147.obj"
writing part 148 size 28 to "buildings_148.obj"
writing part 149 size 36 to "buildings_149.obj"
writing part 150 size 56 to "buildings_150.obj"
writing part 151 size 124 to "buildings_151.obj"
writing part 152 size 44 to "buildings_152.obj"
writing part 153 size 112 to "buildings_153.obj"
writing part 154 size 60 to "buildings_154.obj"
writing part 155 size 12 to "buildings_155.obj"
writing part 156 size 28 to "buildings_156.obj"
writing part 157 size 12 to "buildings_157.obj"
writing part 158 size 12 to "buildings_158.obj"
writing part 159 size 12 to "buildings_159.obj"

Number of zones (connected area with consistent normal) : 160
More than one normal orientation.


End

