/*---------------------------------------------------------------------------*\
  =========                 |
  \\      /  F ield         | OpenFOAM: The Open Source CFD Toolbox
   \\    /   O peration     | Website:  https://openfoam.org
    \\  /    A nd           | Version:  13
     \\/     M anipulation  |
\*---------------------------------------------------------------------------*/
Build  : 13-441953dfbb42
Exec   : foamRun -solver incompressibleFluid
Date   : May 13 2026
Time   : 05:56:04
Host   : "openfoam"
PID    : 2453
I/O    : uncollated
Case   : /home/ubuntu/OpenFOAM/ubuntu-v13/run/sRiverTest/urans/winter
nProcs : 1
sigFpe : Floating point exception trapping - not supported on this platform
fileModificationChecking : Monitoring run-time modified files using timeStampMaster (fileModificationSkew 10)
allowSystemOperations : Allowing user-supplied system call operations

// * * * * * * * * * * * * * * * * * * * * * * * * * * * * * * * * * * * * * //
Create time

Create mesh for time = 0

Selecting solver incompressibleFluid
Selecting viscosity model constant
Selecting turbulence model type RAS
    Selecting RAS turbulence model kOmegaSST
No MRF models present

Selecting patchDistMethod meshWave
Courant Number mean: 0.00596589 max: 0.138299

PIMPLE: No convergence criteria found


PIMPLE: No corrector convergence criteria found
        Calculations will do 2 corrections


PIMPLE: Operating solver in transient mode with 2 outer correctors



Starting time loop

Courant Number mean: 0.00596589 max: 0.138299
deltaT = 0.0595238
Time = 0.0595238s

PIMPLE: Iteration 1
smoothSolver:  Solving for Ux, Initial residual = 1, Final residual = 0.000271283, No Iterations 1
smoothSolver:  Solving for Uy, Initial residual = 1, Final residual = 0.00358546, No Iterations 1
smoothSolver:  Solving for Uz, Initial residual = 1, Final residual = 0.00199834, No Iterations 1
GAMG:  Solving for p, Initial residual = 1, Final residual = 0.0469342, No Iterations 49
GAMG:  Solving for p, Initial residual = 0.635194, Final residual = 0.0244298, No Iterations 3
GAMG:  Solving for p, Initial residual = 0.100199, Final residual = 0.00416694, No Iterations 5
time step continuity errors : sum local = 1.14533e-06, global = -7.9437e-08
GAMG:  Solving for p, Initial residual = 0.127995, Final residual = 0.00628929, No Iterations 43
GAMG:  Solving for p, Initial residual = 0.373383, Final residual = 0.0144571, No Iterations 3
GAMG:  Solving for p, Initial residual = 0.0694835, Final residual = 9.97444e-07, No Iterations 243
time step continuity errors : sum local = 2.76006e-10, global = -3.2269e-11
PIMPLE: Iteration 2
smoothSolver:  Solving for Ux, Initial residual = 0.0100949, Final residual = 8.17027e-09, No Iterations 2
smoothSolver:  Solving for Uy, Initial residual = 0.0230472, Final residual = 1.99696e-08, No Iterations 2
smoothSolver:  Solving for Uz, Initial residual = 0.0195213, Final residual = 8.70349e-08, No Iterations 2
GAMG:  Solving for p, Initial residual = 0.214406, Final residual = 0.0104014, No Iterations 34
GAMG:  Solving for p, Initial residual = 0.428358, Final residual = 0.0164677, No Iterations 3
GAMG:  Solving for p, Initial residual = 0.0753077, Final residual = 0.00358013, No Iterations 6
time step continuity errors : sum local = 8.8673e-07, global = 1.19005e-07
GAMG:  Solving for p, Initial residual = 0.0951459, Final residual = 0.00472898, No Iterations 28
GAMG:  Solving for p, Initial residual = 0.264885, Final residual = 0.0103471, No Iterations 3
GAMG:  Solving for p, Initial residual = 0.0528788, Final residual = 9.8416e-07, No Iterations 243
time step continuity errors : sum local = 2.48468e-10, global = -2.89545e-11, cumulative = -2.89545e-11
smoothSolver:  Solving for omega, Initial residual = 0.0234952, Final residual = 4.66672e-10, No Iterations 2
smoothSolver:  Solving for k, Initial residual = 1, Final residual = 5.94344e-08, No Iterations 2
ExecutionTime = 12.9612 s  ClockTime = 14 s

Courant Number mean: 0.0073361 max: 1.15794
deltaT = 0.0705782
Time = 0.130102s

PIMPLE: Iteration 1
smoothSolver:  Solving for Ux, Initial residual = 0.152443, Final residual = 1.93984e-05, No Iterations 1
smoothSolver:  Solving for Uy, Initial residual = 0.377737, Final residual = 0.000129747, No Iterations 1
smoothSolver:  Solving for Uz, Initial residual = 0.337723, Final residual = 0.000294435, No Iterations 1
GAMG:  Solving for p, Initial residual = 0.191349, Final residual = 0.00934034, No Iterations 14
GAMG:  Solving for p, Initial residual = 0.253479, Final residual = 0.0124544, No Iterations 3
GAMG:  Solving for p, Initial residual = 0.0796957, Final residual = 0.00385634, No Iterations 11
time step continuity errors : sum local = 6.41032e-07, global = -5.09355e-08
GAMG:  Solving for p, Initial residual = 0.144791, Final residual = 0.00630462, No Iterations 16
GAMG:  Solving for p, Initial residual = 0.192493, Final residual = 0.00918632, No Iterations 3
GAMG:  Solving for p, Initial residual = 0.0570102, Final residual = 9.91558e-07, No Iterations 193
time step continuity errors : sum local = 1.67391e-10, global = -1.90925e-11
PIMPLE: Iteration 2
smoothSolver:  Solving for Ux, Initial residual = 0.0283885, Final residual = 1.28947e-08, No Iterations 2
smoothSolver:  Solving for Uy, Initial residual = 0.06774, Final residual = 1.70449e-09, No Iterations 3
smoothSolver:  Solving for Uz, Initial residual = 0.0611374, Final residual = 6.95326e-09, No Iterations 3
GAMG:  Solving for p, Initial residual = 0.179383, Final residual = 0.00802946, No Iterations 16
GAMG:  Solving for p, Initial residual = 0.255722, Final residual = 0.0116454, No Iterations 3
GAMG:  Solving for p, Initial residual = 0.0706723, Final residual = 0.00302512, No Iterations 11
time step continuity errors : sum local = 5.61527e-07, global = -4.57474e-08
GAMG:  Solving for p, Initial residual = 0.135676, Final residual = 0.00617368, No Iterations 16
GAMG:  Solving for p, Initial residual = 0.184579, Final residual = 0.00863728, No Iterations 3
GAMG:  Solving for p, Initial residual = 0.0498109, Final residual = 9.81446e-07, No Iterations 189
time step continuity errors : sum local = 1.85367e-10, global = -2.11154e-11, cumulative = -5.00699e-11
smoothSolver:  Solving for omega, Initial residual = 0.0190464, Final residual = 1.36723e-10, No Iterations 2
smoothSolver:  Solving for k, Initial residual = 0.992632, Final residual = 2.19246e-08, No Iterations 2
ExecutionTime = 21.8914 s  ClockTime = 23 s

Courant Number mean: 0.00873447 max: 1.56368
deltaT = 0.0839638
Time = 0.214066s

PIMPLE: Iteration 1
smoothSolver:  Solving for Ux, Initial residual = 0.110616, Final residual = 1.06184e-05, No Iterations 1
smoothSolver:  Solving for Uy, Initial residual = 0.158764, Final residual = 8.32948e-05, No Iterations 1
smoothSolver:  Solving for Uz, Initial residual = 0.158899, Final residual = 0.000160313, No Iterations 1
GAMG:  Solving for p, Initial residual = 0.152309, Final residual = 0.00677246, No Iterations 12
GAMG:  Solving for p, Initial residual = 0.14679, Final residual = 0.00714479, No Iterations 3
GAMG:  Solving for p, Initial residual = 0.0369023, Final residual = 0.00167652, No Iterations 15
time step continuity errors : sum local = 4.19364e-07, global = -3.66602e-08
GAMG:  Solving for p, Initial residual = 0.110953, Final residual = 0.00497364, No Iterations 12
GAMG:  Solving for p, Initial residual = 0.101786, Final residual = 0.00381602, No Iterations 4
GAMG:  Solving for p, Initial residual = 0.0253558, Final residual = 9.63553e-07, No Iterations 220
time step continuity errors : sum local = 2.45962e-10, global = -2.86548e-11
PIMPLE: Iteration 2
smoothSolver:  Solving for Ux, Initial residual = 0.0268747, Final residual = 1.04266e-08, No Iterations 2
smoothSolver:  Solving for Uy, Initial residual = 0.0327975, Final residual = 1.84113e-09, No Iterations 3
smoothSolver:  Solving for Uz, Initial residual = 0.0350683, Final residual = 5.2013e-09, No Iterations 3
GAMG:  Solving for p, Initial residual = 0.129738, Final residual = 0.00612228, No Iterations 12
GAMG:  Solving for p, Initial residual = 0.136917, Final residual = 0.00652213, No Iterations 3
GAMG:  Solving for p, Initial residual = 0.0333639, Final residual = 0.00164367, No Iterations 13
time step continuity errors : sum local = 4.47083e-07, global = -3.65736e-08
GAMG:  Solving for p, Initial residual = 0.0936388, Final residual = 0.00445232, No Iterations 12
GAMG:  Solving for p, Initial residual = 0.0946797, Final residual = 0.0047124, No Iterations 3
GAMG:  Solving for p, Initial residual = 0.0234546, Final residual = 9.70119e-07, No Iterations 209
time step continuity errors : sum local = 2.68557e-10, global = -3.12469e-11, cumulative = -8.13167e-11
smoothSolver:  Solving for omega, Initial residual = 0.0280032, Final residual = 3.78332e-10, No Iterations 2
smoothSolver:  Solving for k, Initial residual = 0.987016, Final residual = 3.72369e-08, No Iterations 2
ExecutionTime = 31.5464 s  ClockTime = 32 s

Courant Number mean: 0.0104734 max: 1.92863
deltaT = 0.099707
Time = 0.313773s

PIMPLE: Iteration 1
smoothSolver:  Solving for Ux, Initial residual = 0.102704, Final residual = 8.05922e-06, No Iterations 1
smoothSolver:  Solving for Uy, Initial residual = 0.0595897, Final residual = 4.75957e-05, No Iterations 1
smoothSolver:  Solving for Uz, Initial residual = 0.0936044, Final residual = 7.47554e-05, No Iterations 1
GAMG:  Solving for p, Initial residual = 0.119277, Final residual = 0.00522761, No Iterations 10
GAMG:  Solving for p, Initial residual = 0.110432, Final residual = 0.00532604, No Iterations 3
GAMG:  Solving for p, Initial residual = 0.0260992, Final residual = 0.00112745, No Iterations 15
time step continuity errors : sum local = 4.3247e-07, global = -3.45157e-08
GAMG:  Solving for p, Initial residual = 0.0847923, Final residual = 0.00379555, No Iterations 10
GAMG:  Solving for p, Initial residual = 0.0753972, Final residual = 0.00283273, No Iterations 4
GAMG:  Solving for p, Initial residual = 0.0182427, Final residual = 9.79426e-07, No Iterations 198
time step continuity errors : sum local = 3.79918e-10, global = -4.42534e-11
PIMPLE: Iteration 2
smoothSolver:  Solving for Ux, Initial residual = 0.0272826, Final residual = 7.27955e-09, No Iterations 2
smoothSolver:  Solving for Uy, Initial residual = 0.00934965, Final residual = 7.75509e-08, No Iterations 2
smoothSolver:  Solving for Uz, Initial residual = 0.022425, Final residual = 2.72024e-09, No Iterations 3
GAMG:  Solving for p, Initial residual = 0.100372, Final residual = 0.00487215, No Iterations 8
GAMG:  Solving for p, Initial residual = 0.0845981, Final residual = 0.00325153, No Iterations 4
GAMG:  Solving for p, Initial residual = 0.0205024, Final residual = 0.000995595, No Iterations 14
time step continuity errors : sum local = 3.91722e-07, global = -3.03003e-08
GAMG:  Solving for p, Initial residual = 0.0707788, Final residual = 0.0034451, No Iterations 8
GAMG:  Solving for p, Initial residual = 0.0575864, Final residual = 0.00236378, No Iterations 4
GAMG:  Solving for p, Initial residual = 0.0142437, Final residual = 9.70643e-07, No Iterations 190
time step continuity errors : sum local = 3.85405e-10, global = -4.48219e-11, cumulative = -1.26139e-10
smoothSolver:  Solving for omega, Initial residual = 0.0342834, Final residual = 8.6155e-10, No Iterations 2
smoothSolver:  Solving for k, Initial residual = 0.982796, Final residual = 6.6997e-08, No Iterations 2
ExecutionTime = 40.3087 s  ClockTime = 41 s

Courant Number mean: 0.0125712 max: 2.22296
deltaT = 0.117156
Time = 0.430928s

PIMPLE: Iteration 1
smoothSolver:  Solving for Ux, Initial residual = 0.0996746, Final residual = 7.54852e-06, No Iterations 1
smoothSolver:  Solving for Uy, Initial residual = 0.0440962, Final residual = 3.41341e-05, No Iterations 1
smoothSolver:  Solving for Uz, Initial residual = 0.0923487, Final residual = 0.000104799, No Iterations 1
GAMG:  Solving for p, Initial residual = 0.107978, Final residual = 0.00517802, No Iterations 4
GAMG:  Solving for p, Initial residual = 0.0453472, Final residual = 0.00204726, No Iterations 5
GAMG:  Solving for p, Initial residual = 0.0133246, Final residual = 0.000575522, No Iterations 14
time step continuity errors : sum local = 2.85308e-07, global = -2.37916e-08
GAMG:  Solving for p, Initial residual = 0.0757954, Final residual = 0.00364196, No Iterations 4
GAMG:  Solving for p, Initial residual = 0.0309199, Final residual = 0.00151505, No Iterations 5
GAMG:  Solving for p, Initial residual = 0.00956013, Final residual = 9.85763e-07, No Iterations 182
time step continuity errors : sum local = 4.92103e-10, global = -5.75103e-11
PIMPLE: Iteration 2
smoothSolver:  Solving for Ux, Initial residual = 0.0277697, Final residual = 6.50005e-09, No Iterations 2
smoothSolver:  Solving for Uy, Initial residual = 0.0157239, Final residual = 2.59622e-09, No Iterations 3
smoothSolver:  Solving for Uz, Initial residual = 0.0272102, Final residual = 1.43001e-08, No Iterations 3
GAMG:  Solving for p, Initial residual = 0.0939514, Final residual = 0.00389878, No Iterations 4
GAMG:  Solving for p, Initial residual = 0.0355884, Final residual = 0.00161808, No Iterations 4
GAMG:  Solving for p, Initial residual = 0.00924651, Final residual = 0.000422751, No Iterations 9
time step continuity errors : sum local = 2.113e-07, global = -1.81394e-08
GAMG:  Solving for p, Initial residual = 0.0654249, Final residual = 0.00275313, No Iterations 4
GAMG:  Solving for p, Initial residual = 0.0244751, Final residual = 0.0012029, No Iterations 4
GAMG:  Solving for p, Initial residual = 0.00671195, Final residual = 9.89188e-07, No Iterations 167
time step continuity errors : sum local = 4.96095e-10, global = -5.79812e-11, cumulative = -1.8412e-10
smoothSolver:  Solving for omega, Initial residual = 0.0397245, Final residual = 1.83053e-09, No Iterations 2
smoothSolver:  Solving for k, Initial residual = 0.979425, Final residual = 1.13314e-09, No Iterations 3
ExecutionTime = 48.0148 s  ClockTime = 49 s

Courant Number mean: 0.0149568 max: 2.35715
deltaT = 0.138457
Time = 0.569385s

PIMPLE: Iteration 1
smoothSolver:  Solving for Ux, Initial residual = 0.0993041, Final residual = 1.00084e-05, No Iterations 1
smoothSolver:  Solving for Uy, Initial residual = 0.0827369, Final residual = 7.8354e-05, No Iterations 1
smoothSolver:  Solving for Uz, Initial residual = 0.103347, Final residual = 0.000158612, No Iterations 1
GAMG:  Solving for p, Initial residual = 0.0929024, Final residual = 0.00407464, No Iterations 4
GAMG:  Solving for p, Initial residual = 0.0334828, Final residual = 0.00142404, No Iterations 5
GAMG:  Solving for p, Initial residual = 0.00992616, Final residual = 0.000468907, No Iterations 10
time step continuity errors : sum local = 3.04994e-07, global = -2.08326e-08
GAMG:  Solving for p, Initial residual = 0.065743, Final residual = 0.00291409, No Iterations 4
GAMG:  Solving for p, Initial residual = 0.0233283, Final residual = 0.00104539, No Iterations 5
GAMG:  Solving for p, Initial residual = 0.0070548, Final residual = 9.8245e-07, No Iterations 164
time step continuity errors : sum local = 6.39216e-10, global = -7.55108e-11
PIMPLE: Iteration 2
smoothSolver:  Solving for Ux, Initial residual = 0.0282565, Final residual = 1.06922e-08, No Iterations 2
smoothSolver:  Solving for Uy, Initial residual = 0.0227314, Final residual = 7.39634e-09, No Iterations 3
smoothSolver:  Solving for Uz, Initial residual = 0.0277096, Final residual = 2.04574e-08, No Iterations 3
GAMG:  Solving for p, Initial residual = 0.0773803, Final residual = 0.00322857, No Iterations 5
GAMG:  Solving for p, Initial residual = 0.0323212, Final residual = 0.00144409, No Iterations 5
GAMG:  Solving for p, Initial residual = 0.00988888, Final residual = 0.00048748, No Iterations 10
time step continuity errors : sum local = 3.18552e-07, global = 3.00641e-08
GAMG:  Solving for p, Initial residual = 0.0547445, Final residual = 0.00230963, No Iterations 5
GAMG:  Solving for p, Initial residual = 0.0224711, Final residual = 0.00105839, No Iterations 5
GAMG:  Solving for p, Initial residual = 0.00701988, Final residual = 9.52201e-07, No Iterations 161
time step continuity errors : sum local = 6.22056e-10, global = -7.44515e-11, cumulative = -2.58571e-10
smoothSolver:  Solving for omega, Initial residual = 0.0455101, Final residual = 3.83496e-09, No Iterations 2
smoothSolver:  Solving for k, Initial residual = 0.97655, Final residual = 2.058e-09, No Iterations 3
ExecutionTime = 55.3327 s  ClockTime = 56 s

Courant Number mean: 0.0179332 max: 2.47638
deltaT = 0.164097
Time = 0.733482s

PIMPLE: Iteration 1
smoothSolver:  Solving for Ux, Initial residual = 0.0992905, Final residual = 1.31741e-05, No Iterations 1
smoothSolver:  Solving for Uy, Initial residual = 0.0697268, Final residual = 8.79765e-05, No Iterations 1
smoothSolver:  Solving for Uz, Initial residual = 0.0865811, Final residual = 0.000139455, No Iterations 1
GAMG:  Solving for p, Initial residual = 0.0610226, Final residual = 0.00290578, No Iterations 5
GAMG:  Solving for p, Initial residual = 0.0274606, Final residual = 0.00133341, No Iterations 5
GAMG:  Solving for p, Initial residual = 0.00892958, Final residual = 0.000415992, No Iterations 12
time step continuity errors : sum local = 3.63211e-07, global = 2.54704e-08
GAMG:  Solving for p, Initial residual = 0.0435593, Final residual = 0.00208733, No Iterations 5
GAMG:  Solving for p, Initial residual = 0.0190184, Final residual = 0.000920412, No Iterations 6
GAMG:  Solving for p, Initial residual = 0.00672171, Final residual = 9.62244e-07, No Iterations 131
time step continuity errors : sum local = 8.3862e-10, global = 9.5044e-11
PIMPLE: Iteration 2
smoothSolver:  Solving for Ux, Initial residual = 0.0285731, Final residual = 1.5216e-08, No Iterations 2
smoothSolver:  Solving for Uy, Initial residual = 0.0167562, Final residual = 1.02299e-08, No Iterations 3
smoothSolver:  Solving for Uz, Initial residual = 0.0229903, Final residual = 1.67175e-08, No Iterations 3
GAMG:  Solving for p, Initial residual = 0.0490711, Final residual = 0.00214579, No Iterations 6
GAMG:  Solving for p, Initial residual = 0.0244339, Final residual = 0.000978481, No Iterations 6
GAMG:  Solving for p, Initial residual = 0.00783661, Final residual = 0.000355903, No Iterations 12
time step continuity errors : sum local = 3.11561e-07, global = 2.20131e-08
GAMG:  Solving for p, Initial residual = 0.03501, Final residual = 0.00153222, No Iterations 6
GAMG:  Solving for p, Initial residual = 0.0168841, Final residual = 0.00071738, No Iterations 6
GAMG:  Solving for p, Initial residual = 0.00553671, Final residual = 9.63013e-07, No Iterations 122
time step continuity errors : sum local = 8.42296e-10, global = 9.39833e-11, cumulative = -1.64588e-10
smoothSolver:  Solving for omega, Initial residual = 0.0516068, Final residual = 8.19293e-09, No Iterations 2
smoothSolver:  Solving for k, Initial residual = 0.973894, Final residual = 3.97889e-09, No Iterations 3
ExecutionTime = 61.6109 s  ClockTime = 62 s

Courant Number mean: 0.0216108 max: 2.68155
deltaT = 0.193933
Time = 0.927415s

PIMPLE: Iteration 1
smoothSolver:  Solving for Ux, Initial residual = 0.0991736, Final residual = 1.71201e-05, No Iterations 1
smoothSolver:  Solving for Uy, Initial residual = 0.0345982, Final residual = 6.12311e-05, No Iterations 1
smoothSolver:  Solving for Uz, Initial residual = 0.070824, Final residual = 0.000108186, No Iterations 1
GAMG:  Solving for p, Initial residual = 0.050193, Final residual = 0.00223332, No Iterations 4
GAMG:  Solving for p, Initial residual = 0.0187051, Final residual = 0.000824502, No Iterations 8
GAMG:  Solving for p, Initial residual = 0.00715635, Final residual = 0.000339872, No Iterations 12
time step continuity errors : sum local = 3.95983e-07, global = 2.94186e-08
GAMG:  Solving for p, Initial residual = 0.0354738, Final residual = 0.00158846, No Iterations 4
GAMG:  Solving for p, Initial residual = 0.0128123, Final residual = 0.000625489, No Iterations 8
GAMG:  Solving for p, Initial residual = 0.00511647, Final residual = 9.56844e-07, No Iterations 154
time step continuity errors : sum local = 1.11205e-09, global = 1.30482e-10
PIMPLE: Iteration 2
smoothSolver:  Solving for Ux, Initial residual = 0.0288306, Final residual = 2.21125e-08, No Iterations 2
smoothSolver:  Solving for Uy, Initial residual = 0.00787581, Final residual = 9.55019e-09, No Iterations 3
smoothSolver:  Solving for Uz, Initial residual = 0.0194935, Final residual = 1.33879e-08, No Iterations 3
GAMG:  Solving for p, Initial residual = 0.0415693, Final residual = 0.00178525, No Iterations 4
GAMG:  Solving for p, Initial residual = 0.014718, Final residual = 0.000628555, No Iterations 7
GAMG:  Solving for p, Initial residual = 0.00539835, Final residual = 0.000246952, No Iterations 12
time step continuity errors : sum local = 2.88908e-07, global = 2.0195e-08
GAMG:  Solving for p, Initial residual = 0.0293208, Final residual = 0.0012541, No Iterations 4
GAMG:  Solving for p, Initial residual = 0.0104209, Final residual = 0.000444932, No Iterations 7
GAMG:  Solving for p, Initial residual = 0.00375537, Final residual = 9.51962e-07, No Iterations 134
time step continuity errors : sum local = 1.11185e-09, global = 1.28777e-10, cumulative = -3.58114e-11
smoothSolver:  Solving for omega, Initial residual = 0.0570974, Final residual = 1.56761e-08, No Iterations 2
smoothSolver:  Solving for k, Initial residual = 0.971458, Final residual = 7.72066e-09, No Iterations 3
ExecutionTime = 68.4983 s  ClockTime = 69 s

Courant Number mean: 0.0260298 max: 3.08347
deltaT = 0.226255
Time = 1.15367s

PIMPLE: Iteration 1
smoothSolver:  Solving for Ux, Initial residual = 0.0986315, Final residual = 2.24711e-05, No Iterations 1
smoothSolver:  Solving for Uy, Initial residual = 0.0318395, Final residual = 8.01543e-05, No Iterations 1
smoothSolver:  Solving for Uz, Initial residual = 0.0644062, Final residual = 0.000115895, No Iterations 1
GAMG:  Solving for p, Initial residual = 0.0441111, Final residual = 0.00214695, No Iterations 3
GAMG:  Solving for p, Initial residual = 0.0114175, Final residual = 0.000570672, No Iterations 8
GAMG:  Solving for p, Initial residual = 0.0045614, Final residual = 0.000224435, No Iterations 12
time step continuity errors : sum local = 3.47062e-07, global = 3.24204e-08
GAMG:  Solving for p, Initial residual = 0.0308184, Final residual = 0.00127425, No Iterations 4
GAMG:  Solving for p, Initial residual = 0.00826161, Final residual = 0.000389296, No Iterations 7
GAMG:  Solving for p, Initial residual = 0.00304819, Final residual = 9.6292e-07, No Iterations 156
time step continuity errors : sum local = 1.48304e-09, global = 1.75919e-10
PIMPLE: Iteration 2
smoothSolver:  Solving for Ux, Initial residual = 0.0290274, Final residual = 3.73322e-08, No Iterations 2
smoothSolver:  Solving for Uy, Initial residual = 0.00961788, Final residual = 2.42991e-08, No Iterations 3
smoothSolver:  Solving for Uz, Initial residual = 0.0179953, Final residual = 2.33238e-08, No Iterations 3
GAMG:  Solving for p, Initial residual = 0.0352001, Final residual = 0.0016429, No Iterations 3
GAMG:  Solving for p, Initial residual = 0.00968534, Final residual = 0.000417894, No Iterations 6
GAMG:  Solving for p, Initial residual = 0.00303077, Final residual = 0.000130707, No Iterations 12
time step continuity errors : sum local = 2.03564e-07, global = 1.80323e-08
GAMG:  Solving for p, Initial residual = 0.0245287, Final residual = 0.00114552, No Iterations 3
GAMG:  Solving for p, Initial residual = 0.00666449, Final residual = 0.000310644, No Iterations 6
GAMG:  Solving for p, Initial residual = 0.00216741, Final residual = 9.55405e-07, No Iterations 134
time step continuity errors : sum local = 1.48507e-09, global = 1.74779e-10, cumulative = 1.38968e-10
smoothSolver:  Solving for omega, Initial residual = 0.0628151, Final residual = 2.92556e-08, No Iterations 2
smoothSolver:  Solving for k, Initial residual = 0.968844, Final residual = 1.3468e-08, No Iterations 3
ExecutionTime = 75.3178 s  ClockTime = 76 s

Courant Number mean: 0.0310255 max: 3.54601
deltaT = 0.256422
--> FOAM Warning : 
    From function virtual Foam::Time& Foam::Time::operator++()
    in file db/Time/Time.C at line 1304
    Increased the timePrecision from 6 to 7 to distinguish between timeNames at time 1.410091
Time = 1.410091s

PIMPLE: Iteration 1
smoothSolver:  Solving for Ux, Initial residual = 0.0968614, Final residual = 2.79536e-05, No Iterations 1
smoothSolver:  Solving for Uy, Initial residual = 0.0345041, Final residual = 0.000104904, No Iterations 1
smoothSolver:  Solving for Uz, Initial residual = 0.0563716, Final residual = 0.000111224, No Iterations 1
GAMG:  Solving for p, Initial residual = 0.0321374, Final residual = 0.00141647, No Iterations 4
GAMG:  Solving for p, Initial residual = 0.00904035, Final residual = 0.000387215, No Iterations 7
GAMG:  Solving for p, Initial residual = 0.00312521, Final residual = 0.000140135, No Iterations 14
time step continuity errors : sum local = 2.7515e-07, global = 2.85006e-08
GAMG:  Solving for p, Initial residual = 0.0223154, Final residual = 0.00101242, No Iterations 4
GAMG:  Solving for p, Initial residual = 0.00622656, Final residual = 0.00028815, No Iterations 7
GAMG:  Solving for p, Initial residual = 0.00229551, Final residual = 9.6756e-07, No Iterations 150
time step continuity errors : sum local = 1.8942e-09, global = 2.25937e-10
PIMPLE: Iteration 2
smoothSolver:  Solving for Ux, Initial residual = 0.0289097, Final residual = 5.61622e-08, No Iterations 2
smoothSolver:  Solving for Uy, Initial residual = 0.0093222, Final residual = 3.5857e-08, No Iterations 3
smoothSolver:  Solving for Uz, Initial residual = 0.0156795, Final residual = 2.86858e-08, No Iterations 3
GAMG:  Solving for p, Initial residual = 0.0246911, Final residual = 0.00108663, No Iterations 4
GAMG:  Solving for p, Initial residual = 0.00814933, Final residual = 0.000362426, No Iterations 5
GAMG:  Solving for p, Initial residual = 0.00243401, Final residual = 0.000105267, No Iterations 12
time step continuity errors : sum local = 2.08828e-07, global = 1.35501e-08
GAMG:  Solving for p, Initial residual = 0.0171393, Final residual = 0.0007556, No Iterations 4
GAMG:  Solving for p, Initial residual = 0.00560174, Final residual = 0.000261738, No Iterations 5
GAMG:  Solving for p, Initial residual = 0.00170985, Final residual = 9.56274e-07, No Iterations 122
time step continuity errors : sum local = 1.89468e-09, global = 2.25394e-10, cumulative = 3.64361e-10
smoothSolver:  Solving for omega, Initial residual = 0.0665091, Final residual = 4.81288e-08, No Iterations 2
smoothSolver:  Solving for k, Initial residual = 0.965615, Final residual = 2.19601e-08, No Iterations 3
ExecutionTime = 81.8587 s  ClockTime = 83 s

Courant Number mean: 0.035994 max: 4.09778
deltaT = 0.299159
Time = 1.70925s

PIMPLE: Iteration 1
smoothSolver:  Solving for Ux, Initial residual = 0.0993063, Final residual = 3.73618e-05, No Iterations 1
smoothSolver:  Solving for Uy, Initial residual = 0.0266806, Final residual = 0.000104279, No Iterations 1
smoothSolver:  Solving for Uz, Initial residual = 0.0494698, Final residual = 0.000106422, No Iterations 1
GAMG:  Solving for p, Initial residual = 0.023942, Final residual = 0.000946721, No Iterations 5
GAMG:  Solving for p, Initial residual = 0.00758183, Final residual = 0.000342792, No Iterations 10
GAMG:  Solving for p, Initial residual = 0.00331013, Final residual = 0.000157772, No Iterations 14
time step continuity errors : sum local = 4.09342e-07, global = 4.3231e-08
GAMG:  Solving for p, Initial residual = 0.0165137, Final residual = 0.000678843, No Iterations 5
GAMG:  Solving for p, Initial residual = 0.00520563, Final residual = 0.000255675, No Iterations 10
GAMG:  Solving for p, Initial residual = 0.00249584, Final residual = 9.73844e-07, No Iterations 156
time step continuity errors : sum local = 2.51827e-09, global = 3.03433e-10
PIMPLE: Iteration 2
smoothSolver:  Solving for Ux, Initial residual = 0.0299492, Final residual = 9.18836e-08, No Iterations 2
smoothSolver:  Solving for Uy, Initial residual = 0.0072611, Final residual = 4.4956e-08, No Iterations 3
smoothSolver:  Solving for Uz, Initial residual = 0.0136789, Final residual = 3.15914e-08, No Iterations 3
GAMG:  Solving for p, Initial residual = 0.0183182, Final residual = 0.000816509, No Iterations 4
GAMG:  Solving for p, Initial residual = 0.00517108, Final residual = 0.000253304, No Iterations 7
GAMG:  Solving for p, Initial residual = 0.00202244, Final residual = 8.83591e-05, No Iterations 14
time step continuity errors : sum local = 2.3067e-07, global = 2.06149e-08
GAMG:  Solving for p, Initial residual = 0.0126739, Final residual = 0.000570938, No Iterations 4
GAMG:  Solving for p, Initial residual = 0.00354725, Final residual = 0.000150478, No Iterations 9
GAMG:  Solving for p, Initial residual = 0.00155781, Final residual = 9.85096e-07, No Iterations 132
time step continuity errors : sum local = 2.56701e-09, global = 3.09426e-10, cumulative = 6.73787e-10
smoothSolver:  Solving for omega, Initial residual = 0.0711666, Final residual = 8.47546e-08, No Iterations 2
smoothSolver:  Solving for k, Initial residual = 0.962982, Final residual = 3.72135e-08, No Iterations 3
ExecutionTime = 89.1823 s  ClockTime = 90 s

Courant Number mean: 0.0430799 max: 4.912
deltaT = 0.299159
Time = 2.00841s

PIMPLE: Iteration 1
smoothSolver:  Solving for Ux, Initial residual = 0.0894674, Final residual = 3.53396e-05, No Iterations 1
smoothSolver:  Solving for Uy, Initial residual = 0.0184051, Final residual = 6.57118e-05, No Iterations 1
smoothSolver:  Solving for Uz, Initial residual = 0.0372512, Final residual = 8.01665e-05, No Iterations 1
GAMG:  Solving for p, Initial residual = 0.0195337, Final residual = 0.000794691, No Iterations 3
GAMG:  Solving for p, Initial residual = 0.00533507, Final residual = 0.000238041, No Iterations 5
GAMG:  Solving for p, Initial residual = 0.00166437, Final residual = 7.91427e-05, No Iterations 12
time step continuity errors : sum local = 2.13207e-07, global = -1.91212e-08
GAMG:  Solving for p, Initial residual = 0.0136614, Final residual = 0.000557427, No Iterations 3
GAMG:  Solving for p, Initial residual = 0.00364005, Final residual = 0.000177143, No Iterations 5
GAMG:  Solving for p, Initial residual = 0.00118301, Final residual = 9.95764e-07, No Iterations 134
time step continuity errors : sum local = 2.68413e-09, global = -3.25993e-10
PIMPLE: Iteration 2
smoothSolver:  Solving for Ux, Initial residual = 0.027455, Final residual = 8.949e-08, No Iterations 2
smoothSolver:  Solving for Uy, Initial residual = 0.00528733, Final residual = 3.1031e-08, No Iterations 3
smoothSolver:  Solving for Uz, Initial residual = 0.0105017, Final residual = 2.6779e-08, No Iterations 3
GAMG:  Solving for p, Initial residual = 0.0169154, Final residual = 0.000828751, No Iterations 3
GAMG:  Solving for p, Initial residual = 0.00483233, Final residual = 0.000190532, No Iterations 9
GAMG:  Solving for p, Initial residual = 0.00190231, Final residual = 8.9569e-05, No Iterations 12
time step continuity errors : sum local = 2.43403e-07, global = -2.33984e-08
GAMG:  Solving for p, Initial residual = 0.0118035, Final residual = 0.000586776, No Iterations 3
GAMG:  Solving for p, Initial residual = 0.00328161, Final residual = 0.000146466, No Iterations 9
GAMG:  Solving for p, Initial residual = 0.00142313, Final residual = 9.69594e-07, No Iterations 136
time step continuity errors : sum local = 2.63782e-09, global = -3.17715e-10, cumulative = 3.56072e-10
smoothSolver:  Solving for omega, Initial residual = 0.0654414, Final residual = 8.65648e-08, No Iterations 2
smoothSolver:  Solving for k, Initial residual = 0.954997, Final residual = 4.02335e-08, No Iterations 3
ExecutionTime = 95.6529 s  ClockTime = 96 s

Courant Number mean: 0.0441697 max: 4.9858
deltaT = 0.299159
Time = 2.307569s

PIMPLE: Iteration 1
smoothSolver:  Solving for Ux, Initial residual = 0.0833153, Final residual = 3.32225e-05, No Iterations 1
smoothSolver:  Solving for Uy, Initial residual = 0.0149193, Final residual = 4.83815e-05, No Iterations 1
smoothSolver:  Solving for Uz, Initial residual = 0.0297849, Final residual = 6.55511e-05, No Iterations 1
GAMG:  Solving for p, Initial residual = 0.0173988, Final residual = 0.000688379, No Iterations 3
GAMG:  Solving for p, Initial residual = 0.00436178, Final residual = 0.000215253, No Iterations 4
GAMG:  Solving for p, Initial residual = 0.00132774, Final residual = 6.09491e-05, No Iterations 11
time step continuity errors : sum local = 1.66501e-07, global = -2.14929e-08
GAMG:  Solving for p, Initial residual = 0.0121232, Final residual = 0.000478195, No Iterations 3
GAMG:  Solving for p, Initial residual = 0.00295266, Final residual = 0.000130806, No Iterations 5
GAMG:  Solving for p, Initial residual = 0.000937994, Final residual = 9.58313e-07, No Iterations 132
time step continuity errors : sum local = 2.61892e-09, global = -3.18918e-10
PIMPLE: Iteration 2
smoothSolver:  Solving for Ux, Initial residual = 0.0257257, Final residual = 8.37802e-08, No Iterations 2
smoothSolver:  Solving for Uy, Initial residual = 0.00435849, Final residual = 2.53182e-08, No Iterations 3
smoothSolver:  Solving for Uz, Initial residual = 0.00854175, Final residual = 2.16221e-08, No Iterations 3
GAMG:  Solving for p, Initial residual = 0.0147269, Final residual = 0.000624014, No Iterations 3
GAMG:  Solving for p, Initial residual = 0.00369531, Final residual = 0.000160059, No Iterations 6
GAMG:  Solving for p, Initial residual = 0.00110933, Final residual = 5.10725e-05, No Iterations 16
time step continuity errors : sum local = 1.40163e-07, global = -1.51104e-08
GAMG:  Solving for p, Initial residual = 0.0102862, Final residual = 0.000458737, No Iterations 3
GAMG:  Solving for p, Initial residual = 0.00263661, Final residual = 0.000105706, No Iterations 6
GAMG:  Solving for p, Initial residual = 0.000789526, Final residual = 9.92033e-07, No Iterations 122
time step continuity errors : sum local = 2.72656e-09, global = -3.28061e-10, cumulative = 2.80111e-11
smoothSolver:  Solving for omega, Initial residual = 0.0603679, Final residual = 8.14548e-08, No Iterations 2
smoothSolver:  Solving for k, Initial residual = 0.944154, Final residual = 4.05748e-08, No Iterations 3
ExecutionTime = 101.78 s  ClockTime = 102 s

Courant Number mean: 0.0452385 max: 5.02208
deltaT = 0.269243
Time = 2.576812s

PIMPLE: Iteration 1
smoothSolver:  Solving for Ux, Initial residual = 0.0714101, Final residual = 2.47148e-05, No Iterations 1
smoothSolver:  Solving for Uy, Initial residual = 0.0111263, Final residual = 3.39794e-05, No Iterations 1
smoothSolver:  Solving for Uz, Initial residual = 0.0225995, Final residual = 4.25668e-05, No Iterations 1
GAMG:  Solving for p, Initial residual = 0.0211673, Final residual = 0.000838164, No Iterations 4
GAMG:  Solving for p, Initial residual = 0.00670365, Final residual = 0.000292531, No Iterations 10
GAMG:  Solving for p, Initial residual = 0.00354487, Final residual = 0.000176783, No Iterations 12
time step continuity errors : sum local = 4.12136e-07, global = -4.40499e-08
GAMG:  Solving for p, Initial residual = 0.0146524, Final residual = 0.000608962, No Iterations 4
GAMG:  Solving for p, Initial residual = 0.00463277, Final residual = 0.000228133, No Iterations 10
GAMG:  Solving for p, Initial residual = 0.00267705, Final residual = 9.79555e-07, No Iterations 162
time step continuity errors : sum local = 2.29037e-09, global = -2.75335e-10
PIMPLE: Iteration 2
smoothSolver:  Solving for Ux, Initial residual = 0.0222265, Final residual = 5.40347e-08, No Iterations 2
smoothSolver:  Solving for Uy, Initial residual = 0.00337328, Final residual = 1.56075e-08, No Iterations 3
smoothSolver:  Solving for Uz, Initial residual = 0.00666941, Final residual = 1.31608e-08, No Iterations 3
GAMG:  Solving for p, Initial residual = 0.0165768, Final residual = 0.000621136, No Iterations 4
GAMG:  Solving for p, Initial residual = 0.00477854, Final residual = 0.000202534, No Iterations 10
GAMG:  Solving for p, Initial residual = 0.00232755, Final residual = 0.000109226, No Iterations 14
time step continuity errors : sum local = 2.55993e-07, global = -2.81839e-08
GAMG:  Solving for p, Initial residual = 0.0115149, Final residual = 0.000450702, No Iterations 4
GAMG:  Solving for p, Initial residual = 0.0032947, Final residual = 0.000156077, No Iterations 10
GAMG:  Solving for p, Initial residual = 0.0017337, Final residual = 9.84282e-07, No Iterations 148
time step continuity errors : sum local = 2.31168e-09, global = -2.77386e-10, cumulative = -2.49375e-10
smoothSolver:  Solving for omega, Initial residual = 0.0502851, Final residual = 5.26974e-08, No Iterations 2
smoothSolver:  Solving for k, Initial residual = 0.921698, Final residual = 2.87219e-08, No Iterations 3
ExecutionTime = 109.239 s  ClockTime = 110 s

Courant Number mean: 0.0415899 max: 4.5435
deltaT = 0.269243
Time = 2.846055s

PIMPLE: Iteration 1
smoothSolver:  Solving for Ux, Initial residual = 0.0689139, Final residual = 2.33398e-05, No Iterations 1
smoothSolver:  Solving for Uy, Initial residual = 0.00990545, Final residual = 3.15875e-05, No Iterations 1
smoothSolver:  Solving for Uz, Initial residual = 0.019945, Final residual = 3.66826e-05, No Iterations 1
GAMG:  Solving for p, Initial residual = 0.014515, Final residual = 0.00059296, No Iterations 3
GAMG:  Solving for p, Initial residual = 0.00318515, Final residual = 0.000129028, No Iterations 5
GAMG:  Solving for p, Initial residual = 0.000887743, Final residual = 4.25628e-05, No Iterations 8
time step continuity errors : sum local = 9.76605e-08, global = 6.20411e-09
GAMG:  Solving for p, Initial residual = 0.0101313, Final residual = 0.000357946, No Iterations 3
GAMG:  Solving for p, Initial residual = 0.00212826, Final residual = 0.000102086, No Iterations 5
GAMG:  Solving for p, Initial residual = 0.000634427, Final residual = 9.62193e-07, No Iterations 80
time step continuity errors : sum local = 2.20728e-09, global = 2.52164e-10
PIMPLE: Iteration 2
smoothSolver:  Solving for Ux, Initial residual = 0.0213265, Final residual = 4.88772e-08, No Iterations 2
smoothSolver:  Solving for Uy, Initial residual = 0.00317739, Final residual = 1.36322e-08, No Iterations 3
smoothSolver:  Solving for Uz, Initial residual = 0.00587491, Final residual = 1.06182e-08, No Iterations 3
GAMG:  Solving for p, Initial residual = 0.0117493, Final residual = 0.000410495, No Iterations 3
GAMG:  Solving for p, Initial residual = 0.00233232, Final residual = 0.000105015, No Iterations 7
GAMG:  Solving for p, Initial residual = 0.000856025, Final residual = 3.94399e-05, No Iterations 12
time step continuity errors : sum local = 9.03177e-08, global = 8.21022e-09
GAMG:  Solving for p, Initial residual = 0.00820566, Final residual = 0.000299542, No Iterations 3
GAMG:  Solving for p, Initial residual = 0.0016046, Final residual = 6.4699e-05, No Iterations 9
GAMG:  Solving for p, Initial residual = 0.000688393, Final residual = 9.41269e-07, No Iterations 112
time step continuity errors : sum local = 2.15424e-09, global = 2.5805e-10, cumulative = 8.67547e-12
smoothSolver:  Solving for omega, Initial residual = 0.0459868, Final residual = 4.64727e-08, No Iterations 2
smoothSolver:  Solving for k, Initial residual = 0.90666, Final residual = 2.78368e-08, No Iterations 3
ExecutionTime = 114.283 s  ClockTime = 115 s

Courant Number mean: 0.042427 max: 4.57538
deltaT = 0.269243
Time = 3.115298s

PIMPLE: Iteration 1
smoothSolver:  Solving for Ux, Initial residual = 0.0657956, Final residual = 2.24817e-05, No Iterations 1
smoothSolver:  Solving for Uy, Initial residual = 0.010159, Final residual = 3.1054e-05, No Iterations 1
smoothSolver:  Solving for Uz, Initial residual = 0.0173623, Final residual = 2.99507e-05, No Iterations 1
GAMG:  Solving for p, Initial residual = 0.011541, Final residual = 0.000382816, No Iterations 4
GAMG:  Solving for p, Initial residual = 0.00254875, Final residual = 0.000118261, No Iterations 10
GAMG:  Solving for p, Initial residual = 0.00108355, Final residual = 5.3931e-05, No Iterations 16
time step continuity errors : sum local = 1.22636e-07, global = 1.36799e-08
GAMG:  Solving for p, Initial residual = 0.00806942, Final residual = 0.000272778, No Iterations 4
GAMG:  Solving for p, Initial residual = 0.00175914, Final residual = 7.87101e-05, No Iterations 12
GAMG:  Solving for p, Initial residual = 0.000896251, Final residual = 9.51816e-07, No Iterations 126
time step continuity errors : sum local = 2.16139e-09, global = 2.58008e-10
PIMPLE: Iteration 2
smoothSolver:  Solving for Ux, Initial residual = 0.0203478, Final residual = 4.64636e-08, No Iterations 2
smoothSolver:  Solving for Uy, Initial residual = 0.00345915, Final residual = 1.25064e-08, No Iterations 3
smoothSolver:  Solving for Uz, Initial residual = 0.00523164, Final residual = 8.95847e-09, No Iterations 3
GAMG:  Solving for p, Initial residual = 0.00962844, Final residual = 0.000350514, No Iterations 4
GAMG:  Solving for p, Initial residual = 0.00229326, Final residual = 0.000106991, No Iterations 14
GAMG:  Solving for p, Initial residual = 0.00180587, Final residual = 8.90206e-05, No Iterations 6
time step continuity errors : sum local = 2.01417e-07, global = 2.21138e-08
GAMG:  Solving for p, Initial residual = 0.00674567, Final residual = 0.000261479, No Iterations 4
GAMG:  Solving for p, Initial residual = 0.00164011, Final residual = 7.91478e-05, No Iterations 16
GAMG:  Solving for p, Initial residual = 0.00152869, Final residual = 9.66775e-07, No Iterations 134
time step continuity errors : sum local = 2.18429e-09, global = 2.62208e-10, cumulative = 2.70883e-10
smoothSolver:  Solving for omega, Initial residual = 0.0421705, Final residual = 4.31393e-08, No Iterations 2
smoothSolver:  Solving for k, Initial residual = 0.869345, Final residual = 2.6657e-08, No Iterations 3
ExecutionTime = 121.022 s  ClockTime = 122 s

Courant Number mean: 0.0432318 max: 4.61633
deltaT = 0.269243
Time = 3.384541s

PIMPLE: Iteration 1
smoothSolver:  Solving for Ux, Initial residual = 0.0626916, Final residual = 2.15447e-05, No Iterations 1
smoothSolver:  Solving for Uy, Initial residual = 0.0111606, Final residual = 3.02009e-05, No Iterations 1
smoothSolver:  Solving for Uz, Initial residual = 0.0155752, Final residual = 2.3537e-05, No Iterations 1
GAMG:  Solving for p, Initial residual = 0.00997983, Final residual = 0.000468377, No Iterations 4
GAMG:  Solving for p, Initial residual = 0.00246829, Final residual = 0.000122654, No Iterations 18
GAMG:  Solving for p, Initial residual = 0.00233156, Final residual = 0.00010431, No Iterations 6
time step continuity errors : sum local = 2.33901e-07, global = 2.65481e-08
GAMG:  Solving for p, Initial residual = 0.00701231, Final residual = 0.000348295, No Iterations 4
GAMG:  Solving for p, Initial residual = 0.00178334, Final residual = 8.21437e-05, No Iterations 22
GAMG:  Solving for p, Initial residual = 0.00206539, Final residual = 9.84179e-07, No Iterations 136
time step continuity errors : sum local = 2.20233e-09, global = 2.64091e-10
PIMPLE: Iteration 2
smoothSolver:  Solving for Ux, Initial residual = 0.0193649, Final residual = 4.41765e-08, No Iterations 2
smoothSolver:  Solving for Uy, Initial residual = 0.00367492, Final residual = 1.11989e-08, No Iterations 3
smoothSolver:  Solving for Uz, Initial residual = 0.00476344, Final residual = 8.47974e-09, No Iterations 3
GAMG:  Solving for p, Initial residual = 0.0084095, Final residual = 0.000410069, No Iterations 6
GAMG:  Solving for p, Initial residual = 0.00307831, Final residual = 0.000146196, No Iterations 14
GAMG:  Solving for p, Initial residual = 0.00202206, Final residual = 9.88038e-05, No Iterations 12
time step continuity errors : sum local = 2.20091e-07, global = 2.41361e-08
GAMG:  Solving for p, Initial residual = 0.00597635, Final residual = 0.000243803, No Iterations 8
GAMG:  Solving for p, Initial residual = 0.00247574, Final residual = 0.000117106, No Iterations 12
GAMG:  Solving for p, Initial residual = 0.00132777, Final residual = 9.97966e-07, No Iterations 144
time step continuity errors : sum local = 2.21835e-09, global = 2.66328e-10, cumulative = 5.37211e-10
smoothSolver:  Solving for omega, Initial residual = 0.0387501, Final residual = 4.01047e-08, No Iterations 2
smoothSolver:  Solving for k, Initial residual = 0.679232, Final residual = 2.09664e-08, No Iterations 3
ExecutionTime = 128.377 s  ClockTime = 129 s

Courant Number mean: 0.0440068 max: 4.66089
deltaT = 0.269243
Time = 3.653784s

PIMPLE: Iteration 1
smoothSolver:  Solving for Ux, Initial residual = 0.0596199, Final residual = 2.06343e-05, No Iterations 1
smoothSolver:  Solving for Uy, Initial residual = 0.0114569, Final residual = 2.88271e-05, No Iterations 1
smoothSolver:  Solving for Uz, Initial residual = 0.0143206, Final residual = 1.95225e-05, No Iterations 1
GAMG:  Solving for p, Initial residual = 0.00910644, Final residual = 0.000396108, No Iterations 8
GAMG:  Solving for p, Initial residual = 0.00356114, Final residual = 0.000165908, No Iterations 16
GAMG:  Solving for p, Initial residual = 0.00238576, Final residual = 0.000114822, No Iterations 12
time step continuity errors : sum local = 2.52815e-07, global = 2.73705e-08
GAMG:  Solving for p, Initial residual = 0.00650034, Final residual = 0.000301679, No Iterations 8
GAMG:  Solving for p, Initial residual = 0.00267189, Final residual = 0.000129085, No Iterations 16
GAMG:  Solving for p, Initial residual = 0.00184397, Final residual = 9.89991e-07, No Iterations 148
time step continuity errors : sum local = 2.17482e-09, global = 2.60916e-10
PIMPLE: Iteration 2
smoothSolver:  Solving for Ux, Initial residual = 0.0183838, Final residual = 4.18042e-08, No Iterations 2
smoothSolver:  Solving for Uy, Initial residual = 0.00369935, Final residual = 9.99843e-09, No Iterations 3
smoothSolver:  Solving for Uz, Initial residual = 0.00446787, Final residual = 8.54155e-09, No Iterations 3
GAMG:  Solving for p, Initial residual = 0.00789992, Final residual = 0.000385722, No Iterations 8
GAMG:  Solving for p, Initial residual = 0.00388664, Final residual = 0.0001816, No Iterations 14
GAMG:  Solving for p, Initial residual = 0.00237796, Final residual = 0.000115294, No Iterations 14
time step continuity errors : sum local = 2.51913e-07, global = 2.83771e-08
GAMG:  Solving for p, Initial residual = 0.00568008, Final residual = 0.000241144, No Iterations 10
GAMG:  Solving for p, Initial residual = 0.00311176, Final residual = 0.000155131, No Iterations 10
GAMG:  Solving for p, Initial residual = 0.00149839, Final residual = 9.49112e-07, No Iterations 154
time step continuity errors : sum local = 2.06925e-09, global = 2.48465e-10, cumulative = 7.85676e-10
smoothSolver:  Solving for omega, Initial residual = 0.0356647, Final residual = 3.73322e-08, No Iterations 2
smoothSolver:  Solving for k, Initial residual = 0.54256, Final residual = 1.65013e-08, No Iterations 3
ExecutionTime = 136.286 s  ClockTime = 137 s

Courant Number mean: 0.0447516 max: 4.70399
deltaT = 0.269243
Time = 3.923027s

PIMPLE: Iteration 1
smoothSolver:  Solving for Ux, Initial residual = 0.0565509, Final residual = 1.96741e-05, No Iterations 1
smoothSolver:  Solving for Uy, Initial residual = 0.0112816, Final residual = 2.72398e-05, No Iterations 1
smoothSolver:  Solving for Uz, Initial residual = 0.0135539, Final residual = 1.69226e-05, No Iterations 1
GAMG:  Solving for p, Initial residual = 0.00849994, Final residual = 0.000383667, No Iterations 10
GAMG:  Solving for p, Initial residual = 0.00454165, Final residual = 0.000210947, No Iterations 14
GAMG:  Solving for p, Initial residual = 0.00270502, Final residual = 0.000134455, No Iterations 14
time step continuity errors : sum local = 2.89785e-07, global = 3.25699e-08
GAMG:  Solving for p, Initial residual = 0.00617204, Final residual = 0.000293365, No Iterations 10
GAMG:  Solving for p, Initial residual = 0.00346201, Final residual = 0.000163316, No Iterations 14
GAMG:  Solving for p, Initial residual = 0.00207727, Final residual = 9.64104e-07, No Iterations 156
time step continuity errors : sum local = 2.072e-09, global = 2.4872e-10
PIMPLE: Iteration 2
smoothSolver:  Solving for Ux, Initial residual = 0.0174073, Final residual = 3.93725e-08, No Iterations 2
smoothSolver:  Solving for Uy, Initial residual = 0.00361747, Final residual = 8.88297e-09, No Iterations 3
smoothSolver:  Solving for Uz, Initial residual = 0.0043266, Final residual = 8.4254e-09, No Iterations 3
GAMG:  Solving for p, Initial residual = 0.00761236, Final residual = 0.000363482, No Iterations 10
GAMG:  Solving for p, Initial residual = 0.00481318, Final residual = 0.000238752, No Iterations 10
GAMG:  Solving for p, Initial residual = 0.00232302, Final residual = 0.000109497, No Iterations 22
time step continuity errors : sum local = 2.34967e-07, global = 2.75603e-08
GAMG:  Solving for p, Initial residual = 0.00575944, Final residual = 0.000274813, No Iterations 10
GAMG:  Solving for p, Initial residual = 0.00357162, Final residual = 0.000168742, No Iterations 12
GAMG:  Solving for p, Initial residual = 0.00190495, Final residual = 9.81667e-07, No Iterations 156
time step continuity errors : sum local = 2.09913e-09, global = 2.52714e-10, cumulative = 1.03839e-09
smoothSolver:  Solving for omega, Initial residual = 0.0328836, Final residual = 3.46366e-08, No Iterations 2
smoothSolver:  Solving for k, Initial residual = 0.442772, Final residual = 1.33446e-08, No Iterations 3
ExecutionTime = 144.541 s  ClockTime = 145 s

Courant Number mean: 0.0454647 max: 4.74442
deltaT = 0.269243
Time = 4.192271s

PIMPLE: Iteration 1
smoothSolver:  Solving for Ux, Initial residual = 0.0535126, Final residual = 1.86848e-05, No Iterations 1
smoothSolver:  Solving for Uy, Initial residual = 0.0109366, Final residual = 2.57027e-05, No Iterations 1
smoothSolver:  Solving for Uz, Initial residual = 0.0131854, Final residual = 1.60698e-05, No Iterations 1
GAMG:  Solving for p, Initial residual = 0.00832827, Final residual = 0.00037696, No Iterations 12
GAMG:  Solving for p, Initial residual = 0.0055643, Final residual = 0.000268653, No Iterations 10
GAMG:  Solving for p, Initial residual = 0.00263316, Final residual = 0.000123219, No Iterations 22
time step continuity errors : sum local = 2.60151e-07, global = 3.03943e-08
GAMG:  Solving for p, Initial residual = 0.00638544, Final residual = 0.000285229, No Iterations 12
GAMG:  Solving for p, Initial residual = 0.00417352, Final residual = 0.000204483, No Iterations 10
GAMG:  Solving for p, Initial residual = 0.00197862, Final residual = 9.43386e-07, No Iterations 162
time step continuity errors : sum local = 1.98473e-09, global = 2.38806e-10
PIMPLE: Iteration 2
smoothSolver:  Solving for Ux, Initial residual = 0.0164344, Final residual = 3.70849e-08, No Iterations 2
smoothSolver:  Solving for Uy, Initial residual = 0.00352541, Final residual = 8.13026e-09, No Iterations 3
smoothSolver:  Solving for Uz, Initial residual = 0.00421975, Final residual = 8.46258e-09, No Iterations 3
GAMG:  Solving for p, Initial residual = 0.00798635, Final residual = 0.000348194, No Iterations 12
GAMG:  Solving for p, Initial residual = 0.00566473, Final residual = 0.000269231, No Iterations 8
GAMG:  Solving for p, Initial residual = 0.00233775, Final residual = 0.000115927, No Iterations 24
time step continuity errors : sum local = 2.41896e-07, global = 2.83364e-08
GAMG:  Solving for p, Initial residual = 0.00626448, Final residual = 0.000303458, No Iterations 10
GAMG:  Solving for p, Initial residual = 0.00393597, Final residual = 0.000189027, No Iterations 12
GAMG:  Solving for p, Initial residual = 0.00212325, Final residual = 9.71118e-07, No Iterations 160
time step continuity errors : sum local = 2.01872e-09, global = 2.42708e-10, cumulative = 1.2811e-09
smoothSolver:  Solving for omega, Initial residual = 0.0303764, Final residual = 3.22388e-08, No Iterations 2
smoothSolver:  Solving for k, Initial residual = 0.366929, Final residual = 1.10911e-08, No Iterations 3
ExecutionTime = 153.062 s  ClockTime = 154 s

Courant Number mean: 0.0461446 max: 4.78425
deltaT = 0.269243
Time = 4.461514s

PIMPLE: Iteration 1
smoothSolver:  Solving for Ux, Initial residual = 0.050531, Final residual = 1.77602e-05, No Iterations 1
smoothSolver:  Solving for Uy, Initial residual = 0.0107021, Final residual = 2.42952e-05, No Iterations 1
smoothSolver:  Solving for Uz, Initial residual = 0.0128875, Final residual = 1.64752e-05, No Iterations 1
GAMG:  Solving for p, Initial residual = 0.00916561, Final residual = 0.000414717, No Iterations 12
GAMG:  Solving for p, Initial residual = 0.00619858, Final residual = 0.000298942, No Iterations 10
GAMG:  Solving for p, Initial residual = 0.00294366, Final residual = 0.000137889, No Iterations 22
time step continuity errors : sum local = 2.82591e-07, global = 3.30173e-08
GAMG:  Solving for p, Initial residual = 0.0070883, Final residual = 0.000314161, No Iterations 12
GAMG:  Solving for p, Initial residual = 0.00465503, Final residual = 0.000227641, No Iterations 10
GAMG:  Solving for p, Initial residual = 0.00221229, Final residual = 9.93664e-07, No Iterations 164
time step continuity errors : sum local = 2.02842e-09, global = 2.43773e-10
PIMPLE: Iteration 2
smoothSolver:  Solving for Ux, Initial residual = 0.0154949, Final residual = 3.50661e-08, No Iterations 2
smoothSolver:  Solving for Uy, Initial residual = 0.0034618, Final residual = 7.96977e-09, No Iterations 3
smoothSolver:  Solving for Uz, Initial residual = 0.00417018, Final residual = 8.81106e-09, No Iterations 3
GAMG:  Solving for p, Initial residual = 0.00881631, Final residual = 0.000434269, No Iterations 10
GAMG:  Solving for p, Initial residual = 0.00574234, Final residual = 0.000270335, No Iterations 12
GAMG:  Solving for p, Initial residual = 0.00308861, Final residual = 0.000146709, No Iterations 18
time step continuity errors : sum local = 2.96856e-07, global = 3.47274e-08
GAMG:  Solving for p, Initial residual = 0.00670134, Final residual = 0.000330651, No Iterations 10
GAMG:  Solving for p, Initial residual = 0.00431896, Final residual = 0.000207753, No Iterations 12
GAMG:  Solving for p, Initial residual = 0.00233915, Final residual = 9.43209e-07, No Iterations 164
time step continuity errors : sum local = 1.90181e-09, global = 2.28419e-10, cumulative = 1.50952e-09
smoothSolver:  Solving for omega, Initial residual = 0.0281041, Final residual = 2.97833e-08, No Iterations 2
smoothSolver:  Solving for k, Initial residual = 0.307018, Final residual = 9.32202e-09, No Iterations 3
ExecutionTime = 161.617 s  ClockTime = 162 s

Courant Number mean: 0.0467914 max: 4.82678
deltaT = 0.269243
Time = 4.730757s

PIMPLE: Iteration 1
smoothSolver:  Solving for Ux, Initial residual = 0.0476475, Final residual = 1.68958e-05, No Iterations 1
smoothSolver:  Solving for Uy, Initial residual = 0.0105705, Final residual = 2.30365e-05, No Iterations 1
smoothSolver:  Solving for Uz, Initial residual = 0.0128142, Final residual = 1.74471e-05, No Iterations 1
GAMG:  Solving for p, Initial residual = 0.00990333, Final residual = 0.000446071, No Iterations 12
GAMG:  Solving for p, Initial residual = 0.00675878, Final residual = 0.000323874, No Iterations 10
GAMG:  Solving for p, Initial residual = 0.00320936, Final residual = 0.00015009, No Iterations 22
time step continuity errors : sum local = 2.97847e-07, global = 3.47978e-08
GAMG:  Solving for p, Initial residual = 0.0076766, Final residual = 0.000338366, No Iterations 12
GAMG:  Solving for p, Initial residual = 0.0050772, Final residual = 0.000246773, No Iterations 10
GAMG:  Solving for p, Initial residual = 0.00241193, Final residual = 9.54166e-07, No Iterations 168
time step continuity errors : sum local = 1.88545e-09, global = 2.26368e-10
PIMPLE: Iteration 2
smoothSolver:  Solving for Ux, Initial residual = 0.014591, Final residual = 3.30559e-08, No Iterations 2
smoothSolver:  Solving for Uy, Initial residual = 0.00342346, Final residual = 7.51747e-09, No Iterations 3
smoothSolver:  Solving for Uz, Initial residual = 0.0042236, Final residual = 8.70739e-09, No Iterations 3
GAMG:  Solving for p, Initial residual = 0.00945104, Final residual = 0.000460736, No Iterations 10
GAMG:  Solving for p, Initial residual = 0.00615247, Final residual = 0.000288262, No Iterations 12
GAMG:  Solving for p, Initial residual = 0.00331205, Final residual = 0.000156836, No Iterations 18
time step continuity errors : sum local = 3.07331e-07, global = 3.59338e-08
GAMG:  Solving for p, Initial residual = 0.00719957, Final residual = 0.000351332, No Iterations 10
GAMG:  Solving for p, Initial residual = 0.00462851, Final residual = 0.000221652, No Iterations 12
GAMG:  Solving for p, Initial residual = 0.00250876, Final residual = 9.48052e-07, No Iterations 166
time step continuity errors : sum local = 1.85082e-09, global = 2.22073e-10, cumulative = 1.73159e-09
smoothSolver:  Solving for omega, Initial residual = 0.0260412, Final residual = 2.75081e-08, No Iterations 2
smoothSolver:  Solving for k, Initial residual = 0.260132, Final residual = 8.06369e-09, No Iterations 3
ExecutionTime = 170.269 s  ClockTime = 171 s

Courant Number mean: 0.0474093 max: 4.87386
deltaT = 0.269243
Time = 5s

PIMPLE: Iteration 1
smoothSolver:  Solving for Ux, Initial residual = 0.0448877, Final residual = 1.60264e-05, No Iterations 1
smoothSolver:  Solving for Uy, Initial residual = 0.0104957, Final residual = 2.18971e-05, No Iterations 1
smoothSolver:  Solving for Uz, Initial residual = 0.0129722, Final residual = 1.85385e-05, No Iterations 1
GAMG:  Solving for p, Initial residual = 0.010397, Final residual = 0.000473024, No Iterations 12
GAMG:  Solving for p, Initial residual = 0.00730227, Final residual = 0.000344717, No Iterations 10
GAMG:  Solving for p, Initial residual = 0.0034553, Final residual = 0.00017179, No Iterations 20
time step continuity errors : sum local = 3.29566e-07, global = 3.84041e-08
GAMG:  Solving for p, Initial residual = 0.00803262, Final residual = 0.000360931, No Iterations 12
GAMG:  Solving for p, Initial residual = 0.00551333, Final residual = 0.00026404, No Iterations 10
GAMG:  Solving for p, Initial residual = 0.0026092, Final residual = 9.64014e-07, No Iterations 170
time step continuity errors : sum local = 1.84115e-09, global = 2.20768e-10
PIMPLE: Iteration 2
smoothSolver:  Solving for Ux, Initial residual = 0.0137208, Final residual = 3.10452e-08, No Iterations 2
smoothSolver:  Solving for Uy, Initial residual = 0.00339743, Final residual = 7.53342e-09, No Iterations 3
smoothSolver:  Solving for Uz, Initial residual = 0.00432907, Final residual = 8.62742e-09, No Iterations 3
GAMG:  Solving for p, Initial residual = 0.0099301, Final residual = 0.000483917, No Iterations 10
GAMG:  Solving for p, Initial residual = 0.0065552, Final residual = 0.000327615, No Iterations 10
GAMG:  Solving for p, Initial residual = 0.00322467, Final residual = 0.000152311, No Iterations 22
time step continuity errors : sum local = 2.88829e-07, global = 3.37862e-08
GAMG:  Solving for p, Initial residual = 0.00776876, Final residual = 0.000367749, No Iterations 10
GAMG:  Solving for p, Initial residual = 0.00488753, Final residual = 0.000232412, No Iterations 12
GAMG:  Solving for p, Initial residual = 0.00264872, Final residual = 9.96904e-07, No Iterations 166
time step continuity errors : sum local = 1.88129e-09, global = 2.25645e-10, cumulative = 1.95724e-09
smoothSolver:  Solving for omega, Initial residual = 0.0241666, Final residual = 2.54737e-08, No Iterations 2
smoothSolver:  Solving for k, Initial residual = 0.223033, Final residual = 6.80257e-09, No Iterations 3
ExecutionTime = 180.491 s  ClockTime = 182 s

Courant Number mean: 0.0480029 max: 4.92634
deltaT = 0.263158
Time = 5.263158s

PIMPLE: Iteration 1
smoothSolver:  Solving for Ux, Initial residual = 0.0413541, Final residual = 1.43448e-05, No Iterations 1
smoothSolver:  Solving for Uy, Initial residual = 0.0102025, Final residual = 1.98329e-05, No Iterations 1
smoothSolver:  Solving for Uz, Initial residual = 0.0130049, Final residual = 1.85655e-05, No Iterations 1
GAMG:  Solving for p, Initial residual = 0.0102625, Final residual = 0.000504158, No Iterations 10
GAMG:  Solving for p, Initial residual = 0.00627918, Final residual = 0.000290007, No Iterations 14
GAMG:  Solving for p, Initial residual = 0.00378141, Final residual = 0.000186995, No Iterations 14
time step continuity errors : sum local = 3.34935e-07, global = 3.76997e-08
GAMG:  Solving for p, Initial residual = 0.00770431, Final residual = 0.000338297, No Iterations 12
GAMG:  Solving for p, Initial residual = 0.00514526, Final residual = 0.000247842, No Iterations 10
GAMG:  Solving for p, Initial residual = 0.00243138, Final residual = 9.6921e-07, No Iterations 168
time step continuity errors : sum local = 1.72978e-09, global = 2.07252e-10
PIMPLE: Iteration 2
smoothSolver:  Solving for Ux, Initial residual = 0.0126338, Final residual = 2.68021e-08, No Iterations 2
smoothSolver:  Solving for Uy, Initial residual = 0.00327317, Final residual = 6.82516e-09, No Iterations 3
smoothSolver:  Solving for Uz, Initial residual = 0.00432271, Final residual = 9.64916e-08, No Iterations 2
GAMG:  Solving for p, Initial residual = 0.00987292, Final residual = 0.000455546, No Iterations 10
GAMG:  Solving for p, Initial residual = 0.00618782, Final residual = 0.000308657, No Iterations 10
GAMG:  Solving for p, Initial residual = 0.00303282, Final residual = 0.000143587, No Iterations 22
time step continuity errors : sum local = 2.54357e-07, global = 2.97596e-08
GAMG:  Solving for p, Initial residual = 0.00773753, Final residual = 0.000346688, No Iterations 10
GAMG:  Solving for p, Initial residual = 0.00460945, Final residual = 0.000219266, No Iterations 12
GAMG:  Solving for p, Initial residual = 0.00249364, Final residual = 9.42905e-07, No Iterations 166
time step continuity errors : sum local = 1.6627e-09, global = 1.99299e-10, cumulative = 2.15653e-09
smoothSolver:  Solving for omega, Initial residual = 0.0220052, Final residual = 2.18697e-08, No Iterations 2
smoothSolver:  Solving for k, Initial residual = 0.19003, Final residual = 5.45938e-09, No Iterations 3
ExecutionTime = 189.188 s  ClockTime = 191 s

Courant Number mean: 0.047466 max: 4.86982
deltaT = 0.263158
Time = 5.526316s

PIMPLE: Iteration 1
smoothSolver:  Solving for Ux, Initial residual = 0.0390393, Final residual = 1.35176e-05, No Iterations 1
smoothSolver:  Solving for Uy, Initial residual = 0.00998146, Final residual = 1.88349e-05, No Iterations 1
smoothSolver:  Solving for Uz, Initial residual = 0.0132201, Final residual = 1.87343e-05, No Iterations 1
GAMG:  Solving for p, Initial residual = 0.0108424, Final residual = 0.000505346, No Iterations 12
GAMG:  Solving for p, Initial residual = 0.00804415, Final residual = 0.000398538, No Iterations 8
GAMG:  Solving for p, Initial residual = 0.00344538, Final residual = 0.00017155, No Iterations 24
time step continuity errors : sum local = 2.95497e-07, global = 3.43781e-08
GAMG:  Solving for p, Initial residual = 0.00870149, Final residual = 0.000384694, No Iterations 12
GAMG:  Solving for p, Initial residual = 0.00601876, Final residual = 0.000283498, No Iterations 10
GAMG:  Solving for p, Initial residual = 0.00283674, Final residual = 9.76592e-07, No Iterations 172
time step continuity errors : sum local = 1.67223e-09, global = 2.00366e-10
PIMPLE: Iteration 2
smoothSolver:  Solving for Ux, Initial residual = 0.0118864, Final residual = 2.49116e-08, No Iterations 2
smoothSolver:  Solving for Uy, Initial residual = 0.00321055, Final residual = 6.5498e-09, No Iterations 3
smoothSolver:  Solving for Uz, Initial residual = 0.00438119, Final residual = 9.55876e-08, No Iterations 2
GAMG:  Solving for p, Initial residual = 0.0105958, Final residual = 0.000513137, No Iterations 10
GAMG:  Solving for p, Initial residual = 0.0071327, Final residual = 0.000349849, No Iterations 10
GAMG:  Solving for p, Initial residual = 0.00348905, Final residual = 0.000163129, No Iterations 22
time step continuity errors : sum local = 2.77193e-07, global = 3.24279e-08
GAMG:  Solving for p, Initial residual = 0.00838813, Final residual = 0.000390871, No Iterations 10
GAMG:  Solving for p, Initial residual = 0.00531453, Final residual = 0.000248572, No Iterations 12
GAMG:  Solving for p, Initial residual = 0.00286424, Final residual = 9.39279e-07, No Iterations 170
time step continuity errors : sum local = 1.5878e-09, global = 1.90324e-10, cumulative = 2.34686e-09
smoothSolver:  Solving for omega, Initial residual = 0.0204951, Final residual = 2.00981e-08, No Iterations 2
smoothSolver:  Solving for k, Initial residual = 0.166414, Final residual = 4.79386e-09, No Iterations 3
ExecutionTime = 198.113 s  ClockTime = 200 s

Courant Number mean: 0.0479848 max: 4.92791
deltaT = 0.263158
Time = 5.789474s

PIMPLE: Iteration 1
smoothSolver:  Solving for Ux, Initial residual = 0.0367176, Final residual = 1.2779e-05, No Iterations 1
smoothSolver:  Solving for Uy, Initial residual = 0.0098308, Final residual = 1.80281e-05, No Iterations 1
smoothSolver:  Solving for Uz, Initial residual = 0.0134068, Final residual = 1.91162e-05, No Iterations 1
GAMG:  Solving for p, Initial residual = 0.0118361, Final residual = 0.000525042, No Iterations 12
GAMG:  Solving for p, Initial residual = 0.0084847, Final residual = 0.00041456, No Iterations 8
GAMG:  Solving for p, Initial residual = 0.00363882, Final residual = 0.000178745, No Iterations 24
time step continuity errors : sum local = 2.96359e-07, global = 3.44943e-08
GAMG:  Solving for p, Initial residual = 0.00946235, Final residual = 0.00045898, No Iterations 10
GAMG:  Solving for p, Initial residual = 0.00593285, Final residual = 0.000290953, No Iterations 12
GAMG:  Solving for p, Initial residual = 0.00329298, Final residual = 9.5147e-07, No Iterations 174
time step continuity errors : sum local = 1.56839e-09, global = 1.87961e-10
PIMPLE: Iteration 2
smoothSolver:  Solving for Ux, Initial residual = 0.0111589, Final residual = 2.34446e-08, No Iterations 2
smoothSolver:  Solving for Uy, Initial residual = 0.00315303, Final residual = 6.38958e-09, No Iterations 3
smoothSolver:  Solving for Uz, Initial residual = 0.00441432, Final residual = 9.60763e-08, No Iterations 2
GAMG:  Solving for p, Initial residual = 0.011428, Final residual = 0.000532529, No Iterations 10
GAMG:  Solving for p, Initial residual = 0.00747181, Final residual = 0.000362685, No Iterations 10
GAMG:  Solving for p, Initial residual = 0.00364836, Final residual = 0.000181458, No Iterations 20
time step continuity errors : sum local = 2.96648e-07, global = 3.46378e-08
GAMG:  Solving for p, Initial residual = 0.0089632, Final residual = 0.000408135, No Iterations 10
GAMG:  Solving for p, Initial residual = 0.00559146, Final residual = 0.000279031, No Iterations 10
GAMG:  Solving for p, Initial residual = 0.00275268, Final residual = 9.68074e-07, No Iterations 172
time step continuity errors : sum local = 1.57538e-09, global = 1.88864e-10, cumulative = 2.53572e-09
smoothSolver:  Solving for omega, Initial residual = 0.0191299, Final residual = 1.86715e-08, No Iterations 2
smoothSolver:  Solving for k, Initial residual = 0.146909, Final residual = 4.12719e-09, No Iterations 3
ExecutionTime = 206.95 s  ClockTime = 208 s

Courant Number mean: 0.0484755 max: 4.98846
deltaT = 0.263158
Time = 6.052632s

PIMPLE: Iteration 1
smoothSolver:  Solving for Ux, Initial residual = 0.0345046, Final residual = 1.20656e-05, No Iterations 1
smoothSolver:  Solving for Uy, Initial residual = 0.00965397, Final residual = 1.72951e-05, No Iterations 1
smoothSolver:  Solving for Uz, Initial residual = 0.013482, Final residual = 1.95166e-05, No Iterations 1
GAMG:  Solving for p, Initial residual = 0.0125491, Final residual = 0.000626373, No Iterations 10
GAMG:  Solving for p, Initial residual = 0.00830556, Final residual = 0.000396234, No Iterations 12
GAMG:  Solving for p, Initial residual = 0.00457326, Final residual = 0.000215932, No Iterations 18
time step continuity errors : sum local = 3.43996e-07, global = 4.00759e-08
GAMG:  Solving for p, Initial residual = 0.00971886, Final residual = 0.000481471, No Iterations 10
GAMG:  Solving for p, Initial residual = 0.00628719, Final residual = 0.000305783, No Iterations 12
GAMG:  Solving for p, Initial residual = 0.00347867, Final residual = 9.39685e-07, No Iterations 176
time step continuity errors : sum local = 1.48921e-09, global = 1.78515e-10
PIMPLE: Iteration 2
smoothSolver:  Solving for Ux, Initial residual = 0.0104686, Final residual = 2.20754e-08, No Iterations 2
smoothSolver:  Solving for Uy, Initial residual = 0.003082, Final residual = 6.23881e-09, No Iterations 3
smoothSolver:  Solving for Uz, Initial residual = 0.00441592, Final residual = 9.57503e-08, No Iterations 2
GAMG:  Solving for p, Initial residual = 0.0120452, Final residual = 0.000561277, No Iterations 10
GAMG:  Solving for p, Initial residual = 0.00788888, Final residual = 0.000383041, No Iterations 10
GAMG:  Solving for p, Initial residual = 0.0038567, Final residual = 0.000191925, No Iterations 20
time step continuity errors : sum local = 3.01373e-07, global = 3.52125e-08
GAMG:  Solving for p, Initial residual = 0.00944749, Final residual = 0.000430802, No Iterations 10
GAMG:  Solving for p, Initial residual = 0.00590435, Final residual = 0.000294903, No Iterations 10
GAMG:  Solving for p, Initial residual = 0.00291069, Final residual = 9.60151e-07, No Iterations 174
time step continuity errors : sum local = 1.50043e-09, global = 1.7993e-10, cumulative = 2.71565e-09
smoothSolver:  Solving for omega, Initial residual = 0.017887, Final residual = 1.74158e-08, No Iterations 2
smoothSolver:  Solving for k, Initial residual = 0.130572, Final residual = 3.69718e-09, No Iterations 3
ExecutionTime = 215.78 s  ClockTime = 217 s

Courant Number mean: 0.0489398 max: 5.05041
deltaT = 0.246711
Time = 6.299342s

PIMPLE: Iteration 1
smoothSolver:  Solving for Ux, Initial residual = 0.0304587, Final residual = 9.72739e-06, No Iterations 1
smoothSolver:  Solving for Uy, Initial residual = 0.00884082, Final residual = 1.42593e-05, No Iterations 1
smoothSolver:  Solving for Uz, Initial residual = 0.0126898, Final residual = 1.69653e-05, No Iterations 1
GAMG:  Solving for p, Initial residual = 0.0112586, Final residual = 0.000476968, No Iterations 10
GAMG:  Solving for p, Initial residual = 0.00615749, Final residual = 0.000300377, No Iterations 12
GAMG:  Solving for p, Initial residual = 0.00330678, Final residual = 0.000162574, No Iterations 18
time step continuity errors : sum local = 2.26414e-07, global = 2.63056e-08
GAMG:  Solving for p, Initial residual = 0.00865217, Final residual = 0.000366943, No Iterations 10
GAMG:  Solving for p, Initial residual = 0.00470721, Final residual = 0.00023218, No Iterations 12
GAMG:  Solving for p, Initial residual = 0.00252311, Final residual = 9.8847e-07, No Iterations 166
time step continuity errors : sum local = 1.37123e-09, global = 1.64119e-10
PIMPLE: Iteration 2
smoothSolver:  Solving for Ux, Initial residual = 0.009258, Final residual = 1.63411e-08, No Iterations 2
smoothSolver:  Solving for Uy, Initial residual = 0.00276636, Final residual = 8.81502e-08, No Iterations 2
smoothSolver:  Solving for Uz, Initial residual = 0.00409068, Final residual = 8.03769e-08, No Iterations 2
GAMG:  Solving for p, Initial residual = 0.0106251, Final residual = 0.000454232, No Iterations 10
GAMG:  Solving for p, Initial residual = 0.00620685, Final residual = 0.000309144, No Iterations 10
GAMG:  Solving for p, Initial residual = 0.00302699, Final residual = 0.000144296, No Iterations 22
time step continuity errors : sum local = 1.98277e-07, global = 2.32236e-08
GAMG:  Solving for p, Initial residual = 0.00834652, Final residual = 0.000347481, No Iterations 10
GAMG:  Solving for p, Initial residual = 0.0046369, Final residual = 0.000220625, No Iterations 12
GAMG:  Solving for p, Initial residual = 0.00249737, Final residual = 9.56343e-07, No Iterations 166
time step continuity errors : sum local = 1.30815e-09, global = 1.56652e-10, cumulative = 2.8723e-09
smoothSolver:  Solving for omega, Initial residual = 0.015805, Final residual = 1.29067e-08, No Iterations 2
smoothSolver:  Solving for k, Initial residual = 0.110898, Final residual = 2.63365e-09, No Iterations 3
ExecutionTime = 224.355 s  ClockTime = 226 s

Courant Number mean: 0.0462786 max: 4.79029
deltaT = 0.246711
Time = 6.546053s

PIMPLE: Iteration 1
smoothSolver:  Solving for Ux, Initial residual = 0.0288579, Final residual = 9.08206e-06, No Iterations 1
smoothSolver:  Solving for Uy, Initial residual = 0.00829617, Final residual = 1.33398e-05, No Iterations 1
smoothSolver:  Solving for Uz, Initial residual = 0.0124408, Final residual = 1.57171e-05, No Iterations 1
GAMG:  Solving for p, Initial residual = 0.0115711, Final residual = 0.000573045, No Iterations 12
GAMG:  Solving for p, Initial residual = 0.0094059, Final residual = 0.000456472, No Iterations 8
GAMG:  Solving for p, Initial residual = 0.00400585, Final residual = 0.000197975, No Iterations 24
time step continuity errors : sum local = 2.61283e-07, global = 3.04108e-08
GAMG:  Solving for p, Initial residual = 0.00948016, Final residual = 0.000437415, No Iterations 12
GAMG:  Solving for p, Initial residual = 0.0070409, Final residual = 0.000348095, No Iterations 8
GAMG:  Solving for p, Initial residual = 0.00298883, Final residual = 9.83186e-07, No Iterations 178
time step continuity errors : sum local = 1.28995e-09, global = 1.54366e-10
PIMPLE: Iteration 2
smoothSolver:  Solving for Ux, Initial residual = 0.00872162, Final residual = 1.48876e-08, No Iterations 2
smoothSolver:  Solving for Uy, Initial residual = 0.00263844, Final residual = 8.11384e-08, No Iterations 2
smoothSolver:  Solving for Uz, Initial residual = 0.00402505, Final residual = 7.72484e-08, No Iterations 2
GAMG:  Solving for p, Initial residual = 0.0118842, Final residual = 0.000588261, No Iterations 10
GAMG:  Solving for p, Initial residual = 0.00834274, Final residual = 0.00040557, No Iterations 10
GAMG:  Solving for p, Initial residual = 0.00407709, Final residual = 0.000203331, No Iterations 20
time step continuity errors : sum local = 2.63899e-07, global = 3.07815e-08
GAMG:  Solving for p, Initial residual = 0.00943477, Final residual = 0.000451695, No Iterations 10
GAMG:  Solving for p, Initial residual = 0.00626373, Final residual = 0.000312396, No Iterations 10
GAMG:  Solving for p, Initial residual = 0.00308071, Final residual = 9.56397e-07, No Iterations 176
time step continuity errors : sum local = 1.23491e-09, global = 1.47828e-10, cumulative = 3.02013e-09
smoothSolver:  Solving for omega, Initial residual = 0.0148441, Final residual = 1.16476e-08, No Iterations 2
smoothSolver:  Solving for k, Initial residual = 0.100101, Final residual = 2.34005e-09, No Iterations 3
ExecutionTime = 233.282 s  ClockTime = 235 s

Courant Number mean: 0.0466505 max: 4.84487
deltaT = 0.246711
Time = 6.792763s

PIMPLE: Iteration 1
smoothSolver:  Solving for Ux, Initial residual = 0.0270791, Final residual = 8.56802e-06, No Iterations 1
smoothSolver:  Solving for Uy, Initial residual = 0.00804763, Final residual = 1.27899e-05, No Iterations 1
smoothSolver:  Solving for Uz, Initial residual = 0.0123766, Final residual = 1.55678e-05, No Iterations 1
GAMG:  Solving for p, Initial residual = 0.0137089, Final residual = 0.000684263, No Iterations 10
GAMG:  Solving for p, Initial residual = 0.00931366, Final residual = 0.000435026, No Iterations 12
GAMG:  Solving for p, Initial residual = 0.00509696, Final residual = 0.000237708, No Iterations 18
time step continuity errors : sum local = 2.99657e-07, global = 3.48953e-08
GAMG:  Solving for p, Initial residual = 0.0106205, Final residual = 0.000526916, No Iterations 10
GAMG:  Solving for p, Initial residual = 0.00704598, Final residual = 0.000335997, No Iterations 12
GAMG:  Solving for p, Initial residual = 0.00387631, Final residual = 9.73692e-07, No Iterations 178
time step continuity errors : sum local = 1.22043e-09, global = 1.46071e-10
PIMPLE: Iteration 2
smoothSolver:  Solving for Ux, Initial residual = 0.0081752, Final residual = 1.40668e-08, No Iterations 2
smoothSolver:  Solving for Uy, Initial residual = 0.00256081, Final residual = 7.7114e-08, No Iterations 2
smoothSolver:  Solving for Uz, Initial residual = 0.00398669, Final residual = 7.72328e-08, No Iterations 2
GAMG:  Solving for p, Initial residual = 0.0133584, Final residual = 0.000609218, No Iterations 10
GAMG:  Solving for p, Initial residual = 0.00871964, Final residual = 0.000416521, No Iterations 10
GAMG:  Solving for p, Initial residual = 0.00425006, Final residual = 0.000208896, No Iterations 20
time step continuity errors : sum local = 2.5908e-07, global = 3.02244e-08
GAMG:  Solving for p, Initial residual = 0.010451, Final residual = 0.000468244, No Iterations 10
GAMG:  Solving for p, Initial residual = 0.00653062, Final residual = 0.000320888, No Iterations 10
GAMG:  Solving for p, Initial residual = 0.00320868, Final residual = 9.82157e-07, No Iterations 176
time step continuity errors : sum local = 1.2117e-09, global = 1.45072e-10, cumulative = 3.1652e-09
smoothSolver:  Solving for omega, Initial residual = 0.0139863, Final residual = 1.08802e-08, No Iterations 2
smoothSolver:  Solving for k, Initial residual = 0.0908889, Final residual = 2.04506e-09, No Iterations 3
ExecutionTime = 242.182 s  ClockTime = 244 s

Courant Number mean: 0.0469991 max: 4.89792
deltaT = 0.246711
Time = 7.039474s

PIMPLE: Iteration 1
smoothSolver:  Solving for Ux, Initial residual = 0.0253768, Final residual = 8.08036e-06, No Iterations 1
smoothSolver:  Solving for Uy, Initial residual = 0.00785595, Final residual = 1.22828e-05, No Iterations 1
smoothSolver:  Solving for Uz, Initial residual = 0.0122486, Final residual = 1.57754e-05, No Iterations 1
GAMG:  Solving for p, Initial residual = 0.0147258, Final residual = 0.000706039, No Iterations 10
GAMG:  Solving for p, Initial residual = 0.0096423, Final residual = 0.000447226, No Iterations 12
GAMG:  Solving for p, Initial residual = 0.0052654, Final residual = 0.000263057, No Iterations 16
time step continuity errors : sum local = 3.16953e-07, global = 3.64547e-08
GAMG:  Solving for p, Initial residual = 0.011193, Final residual = 0.000547153, No Iterations 10
GAMG:  Solving for p, Initial residual = 0.00732822, Final residual = 0.000347572, No Iterations 12
GAMG:  Solving for p, Initial residual = 0.00402734, Final residual = 9.45315e-07, No Iterations 180
time step continuity errors : sum local = 1.13245e-09, global = 1.35572e-10
PIMPLE: Iteration 2
smoothSolver:  Solving for Ux, Initial residual = 0.00765404, Final residual = 1.32863e-08, No Iterations 2
smoothSolver:  Solving for Uy, Initial residual = 0.00249213, Final residual = 7.34374e-08, No Iterations 2
smoothSolver:  Solving for Uz, Initial residual = 0.00393399, Final residual = 7.78462e-08, No Iterations 2
GAMG:  Solving for p, Initial residual = 0.0140457, Final residual = 0.000627589, No Iterations 10
GAMG:  Solving for p, Initial residual = 0.00899761, Final residual = 0.000427628, No Iterations 10
GAMG:  Solving for p, Initial residual = 0.00437985, Final residual = 0.000214715, No Iterations 20
time step continuity errors : sum local = 2.54477e-07, global = 2.96987e-08
GAMG:  Solving for p, Initial residual = 0.0109104, Final residual = 0.000482721, No Iterations 10
GAMG:  Solving for p, Initial residual = 0.00673262, Final residual = 0.000329597, No Iterations 10
[...]
time step continuity errors : sum local = 1.5584e-09, global = 1.40918e-10
GAMG:  Solving for p, Initial residual = 0.00177981, Final residual = 7.53491e-05, No Iterations 4
GAMG:  Solving for p, Initial residual = 0.000512508, Final residual = 2.27071e-05, No Iterations 7
GAMG:  Solving for p, Initial residual = 0.000192785, Final residual = 9.56199e-07, No Iterations 56
time step continuity errors : sum local = 1.18836e-10, global = 1.34716e-11
PIMPLE: Iteration 2
smoothSolver:  Solving for Ux, Initial residual = 6.20477e-05, Final residual = 4.53047e-08, No Iterations 1
smoothSolver:  Solving for Uy, Initial residual = 0.000570237, Final residual = 9.39818e-09, No Iterations 2
smoothSolver:  Solving for Uz, Initial residual = 0.00128998, Final residual = 3.47577e-08, No Iterations 2
GAMG:  Solving for p, Initial residual = 0.00260627, Final residual = 0.000128273, No Iterations 4
GAMG:  Solving for p, Initial residual = 0.000862744, Final residual = 3.7928e-05, No Iterations 8
GAMG:  Solving for p, Initial residual = 0.000358501, Final residual = 1.78688e-05, No Iterations 14
time step continuity errors : sum local = 2.21936e-09, global = 3.09631e-10
GAMG:  Solving for p, Initial residual = 0.00184747, Final residual = 8.79079e-05, No Iterations 4
GAMG:  Solving for p, Initial residual = 0.000608774, Final residual = 2.967e-05, No Iterations 8
GAMG:  Solving for p, Initial residual = 0.000255167, Final residual = 9.80071e-07, No Iterations 95
time step continuity errors : sum local = 1.21717e-10, global = -1.49409e-11, cumulative = -9.9136e-11
smoothSolver:  Solving for omega, Initial residual = 0.00147379, Final residual = 1.9363e-09, No Iterations 2
smoothSolver:  Solving for k, Initial residual = 0.000261402, Final residual = 2.04697e-09, No Iterations 2
bounding k, min: -0.00412808 max: 7.94427 average: 1.04791
ExecutionTime = 3260.03 s  ClockTime = 3291 s

Courant Number mean: 0.088294 max: 4.60252
deltaT = 0.454545
Time = 197.272727s

PIMPLE: Iteration 1
smoothSolver:  Solving for Ux, Initial residual = 0.000202696, Final residual = 1.33839e-07, No Iterations 1
smoothSolver:  Solving for Uy, Initial residual = 0.00185614, Final residual = 1.71645e-06, No Iterations 1
smoothSolver:  Solving for Uz, Initial residual = 0.00421685, Final residual = 2.80156e-06, No Iterations 1
GAMG:  Solving for p, Initial residual = 0.00254698, Final residual = 0.0001062, No Iterations 4
GAMG:  Solving for p, Initial residual = 0.000739342, Final residual = 3.14368e-05, No Iterations 7
GAMG:  Solving for p, Initial residual = 0.000273354, Final residual = 1.23867e-05, No Iterations 12
time step continuity errors : sum local = 1.53857e-09, global = 1.39181e-10
GAMG:  Solving for p, Initial residual = 0.0017843, Final residual = 7.47213e-05, No Iterations 4
GAMG:  Solving for p, Initial residual = 0.000510596, Final residual = 2.24773e-05, No Iterations 7
GAMG:  Solving for p, Initial residual = 0.00019144, Final residual = 9.39199e-07, No Iterations 56
time step continuity errors : sum local = 1.16659e-10, global = 1.32318e-11
PIMPLE: Iteration 2
smoothSolver:  Solving for Ux, Initial residual = 6.19357e-05, Final residual = 4.50171e-08, No Iterations 1
smoothSolver:  Solving for Uy, Initial residual = 0.000570493, Final residual = 9.34662e-09, No Iterations 2
smoothSolver:  Solving for Uz, Initial residual = 0.00128695, Final residual = 3.46591e-08, No Iterations 2
GAMG:  Solving for p, Initial residual = 0.00261787, Final residual = 0.000128218, No Iterations 4
GAMG:  Solving for p, Initial residual = 0.000857811, Final residual = 3.78546e-05, No Iterations 8
GAMG:  Solving for p, Initial residual = 0.000360503, Final residual = 1.77351e-05, No Iterations 14
time step continuity errors : sum local = 2.20157e-09, global = 3.05845e-10
GAMG:  Solving for p, Initial residual = 0.00185573, Final residual = 8.82142e-05, No Iterations 4
GAMG:  Solving for p, Initial residual = 0.000605999, Final residual = 2.96539e-05, No Iterations 8
GAMG:  Solving for p, Initial residual = 0.00025538, Final residual = 9.70153e-07, No Iterations 95
time step continuity errors : sum local = 1.20421e-10, global = -1.47804e-11, cumulative = -1.13916e-10
smoothSolver:  Solving for omega, Initial residual = 0.00147412, Final residual = 1.935e-09, No Iterations 2
smoothSolver:  Solving for k, Initial residual = 0.000260844, Final residual = 2.03133e-09, No Iterations 2
ExecutionTime = 3264.57 s  ClockTime = 3296 s

Courant Number mean: 0.0882898 max: 4.60209
deltaT = 0.454545
Time = 197.727273s

PIMPLE: Iteration 1
smoothSolver:  Solving for Ux, Initial residual = 0.000202341, Final residual = 1.33014e-07, No Iterations 1
smoothSolver:  Solving for Uy, Initial residual = 0.00185689, Final residual = 1.7115e-06, No Iterations 1
smoothSolver:  Solving for Uz, Initial residual = 0.00420774, Final residual = 2.79071e-06, No Iterations 1
GAMG:  Solving for p, Initial residual = 0.00255715, Final residual = 0.000106244, No Iterations 4
GAMG:  Solving for p, Initial residual = 0.000737664, Final residual = 3.11961e-05, No Iterations 7
GAMG:  Solving for p, Initial residual = 0.000271622, Final residual = 1.22707e-05, No Iterations 12
time step continuity errors : sum local = 1.52339e-09, global = 1.37686e-10
GAMG:  Solving for p, Initial residual = 0.00179148, Final residual = 7.47958e-05, No Iterations 4
GAMG:  Solving for p, Initial residual = 0.000509065, Final residual = 2.23341e-05, No Iterations 7
GAMG:  Solving for p, Initial residual = 0.00019018, Final residual = 9.23456e-07, No Iterations 56
time step continuity errors : sum local = 1.14645e-10, global = 1.30051e-11
PIMPLE: Iteration 2
smoothSolver:  Solving for Ux, Initial residual = 6.18244e-05, Final residual = 4.47345e-08, No Iterations 1
smoothSolver:  Solving for Uy, Initial residual = 0.000570542, Final residual = 9.32099e-09, No Iterations 2
smoothSolver:  Solving for Uz, Initial residual = 0.00128414, Final residual = 3.4561e-08, No Iterations 2
GAMG:  Solving for p, Initial residual = 0.00262782, Final residual = 0.000128635, No Iterations 4
GAMG:  Solving for p, Initial residual = 0.000852855, Final residual = 3.78002e-05, No Iterations 8
GAMG:  Solving for p, Initial residual = 0.000360856, Final residual = 1.76373e-05, No Iterations 14
time step continuity errors : sum local = 2.18835e-09, global = 3.03138e-10
GAMG:  Solving for p, Initial residual = 0.0018621, Final residual = 8.84698e-05, No Iterations 4
GAMG:  Solving for p, Initial residual = 0.000602509, Final residual = 2.96343e-05, No Iterations 8
GAMG:  Solving for p, Initial residual = 0.000255175, Final residual = 9.6343e-07, No Iterations 95
time step continuity errors : sum local = 1.19527e-10, global = -1.46663e-11, cumulative = -1.28583e-10
smoothSolver:  Solving for omega, Initial residual = 0.00147447, Final residual = 1.9337e-09, No Iterations 2
smoothSolver:  Solving for k, Initial residual = 0.000260293, Final residual = 2.01149e-09, No Iterations 2
ExecutionTime = 3269.11 s  ClockTime = 3300 s

Courant Number mean: 0.0882858 max: 4.60169
deltaT = 0.454545
Time = 198.181818s

PIMPLE: Iteration 1
smoothSolver:  Solving for Ux, Initial residual = 0.000201988, Final residual = 1.32205e-07, No Iterations 1
smoothSolver:  Solving for Uy, Initial residual = 0.00185686, Final residual = 1.70615e-06, No Iterations 1
smoothSolver:  Solving for Uz, Initial residual = 0.00419841, Final residual = 2.77891e-06, No Iterations 1
GAMG:  Solving for p, Initial residual = 0.00256109, Final residual = 0.000106102, No Iterations 4
GAMG:  Solving for p, Initial residual = 0.000735417, Final residual = 3.09743e-05, No Iterations 7
GAMG:  Solving for p, Initial residual = 0.000269277, Final residual = 1.21924e-05, No Iterations 12
time step continuity errors : sum local = 1.51289e-09, global = 1.36754e-10
GAMG:  Solving for p, Initial residual = 0.00179412, Final residual = 7.47891e-05, No Iterations 4
GAMG:  Solving for p, Initial residual = 0.00050736, Final residual = 2.21934e-05, No Iterations 7
GAMG:  Solving for p, Initial residual = 0.000188539, Final residual = 9.88829e-07, No Iterations 54
time step continuity errors : sum local = 1.22699e-10, global = 1.39227e-11
PIMPLE: Iteration 2
smoothSolver:  Solving for Ux, Initial residual = 6.17132e-05, Final residual = 4.4457e-08, No Iterations 1
smoothSolver:  Solving for Uy, Initial residual = 0.000570417, Final residual = 9.28356e-09, No Iterations 2
smoothSolver:  Solving for Uz, Initial residual = 0.00128147, Final residual = 3.44251e-08, No Iterations 2
GAMG:  Solving for p, Initial residual = 0.00260923, Final residual = 0.000127625, No Iterations 4
GAMG:  Solving for p, Initial residual = 0.000844459, Final residual = 3.74714e-05, No Iterations 8
GAMG:  Solving for p, Initial residual = 0.000368061, Final residual = 1.72647e-05, No Iterations 14
time step continuity errors : sum local = 2.14106e-09, global = 2.97227e-10
GAMG:  Solving for p, Initial residual = 0.00184797, Final residual = 8.84291e-05, No Iterations 4
GAMG:  Solving for p, Initial residual = 0.000597088, Final residual = 2.96969e-05, No Iterations 8
GAMG:  Solving for p, Initial residual = 0.000254731, Final residual = 9.56702e-07, No Iterations 95
time step continuity errors : sum local = 1.18635e-10, global = -1.45553e-11, cumulative = -1.43138e-10
smoothSolver:  Solving for omega, Initial residual = 0.00147485, Final residual = 1.93266e-09, No Iterations 2
smoothSolver:  Solving for k, Initial residual = 0.00025973, Final residual = 1.99497e-09, No Iterations 2
bounding k, min: -0.000209211 max: 7.94427 average: 1.04763
ExecutionTime = 3273.62 s  ClockTime = 3305 s

Courant Number mean: 0.0882817 max: 4.60131
deltaT = 0.454545
Time = 198.636364s

PIMPLE: Iteration 1
smoothSolver:  Solving for Ux, Initial residual = 0.000201641, Final residual = 1.31414e-07, No Iterations 1
smoothSolver:  Solving for Uy, Initial residual = 0.00185644, Final residual = 1.70086e-06, No Iterations 1
smoothSolver:  Solving for Uz, Initial residual = 0.00419095, Final residual = 2.76603e-06, No Iterations 1
GAMG:  Solving for p, Initial residual = 0.00254592, Final residual = 0.000106506, No Iterations 4
GAMG:  Solving for p, Initial residual = 0.000730895, Final residual = 3.1145e-05, No Iterations 7
GAMG:  Solving for p, Initial residual = 0.00026796, Final residual = 1.22436e-05, No Iterations 12
time step continuity errors : sum local = 1.51854e-09, global = 1.37639e-10
GAMG:  Solving for p, Initial residual = 0.00178368, Final residual = 7.50289e-05, No Iterations 4
GAMG:  Solving for p, Initial residual = 0.000504564, Final residual = 2.23011e-05, No Iterations 7
GAMG:  Solving for p, Initial residual = 0.000187593, Final residual = 9.85686e-07, No Iterations 54
time step continuity errors : sum local = 1.22251e-10, global = 1.38726e-11
PIMPLE: Iteration 2
smoothSolver:  Solving for Ux, Initial residual = 6.16039e-05, Final residual = 4.41842e-08, No Iterations 1
smoothSolver:  Solving for Uy, Initial residual = 0.000570261, Final residual = 9.24797e-09, No Iterations 2
smoothSolver:  Solving for Uz, Initial residual = 0.00127916, Final residual = 3.42983e-08, No Iterations 2
GAMG:  Solving for p, Initial residual = 0.0025968, Final residual = 0.000126617, No Iterations 4
GAMG:  Solving for p, Initial residual = 0.000832826, Final residual = 3.76912e-05, No Iterations 8
GAMG:  Solving for p, Initial residual = 0.000368634, Final residual = 1.72391e-05, No Iterations 14
time step continuity errors : sum local = 2.13694e-09, global = 2.94329e-10
GAMG:  Solving for p, Initial residual = 0.00183939, Final residual = 8.84585e-05, No Iterations 4
GAMG:  Solving for p, Initial residual = 0.000589407, Final residual = 2.60299e-05, No Iterations 10
GAMG:  Solving for p, Initial residual = 0.000274952, Final residual = 9.59097e-07, No Iterations 93
time step continuity errors : sum local = 1.18877e-10, global = -1.45815e-11, cumulative = -1.57719e-10
smoothSolver:  Solving for omega, Initial residual = 0.00147521, Final residual = 1.93356e-09, No Iterations 2
smoothSolver:  Solving for k, Initial residual = 0.000259142, Final residual = 1.97803e-09, No Iterations 2
ExecutionTime = 3278.12 s  ClockTime = 3309 s

Courant Number mean: 0.0882777 max: 4.60096
deltaT = 0.454545
Time = 199.090909s

PIMPLE: Iteration 1
smoothSolver:  Solving for Ux, Initial residual = 0.000201295, Final residual = 1.30633e-07, No Iterations 1
smoothSolver:  Solving for Uy, Initial residual = 0.00185599, Final residual = 1.69496e-06, No Iterations 1
smoothSolver:  Solving for Uz, Initial residual = 0.00418401, Final residual = 2.75321e-06, No Iterations 1
GAMG:  Solving for p, Initial residual = 0.00253457, Final residual = 0.000107234, No Iterations 4
GAMG:  Solving for p, Initial residual = 0.000734949, Final residual = 3.12203e-05, No Iterations 7
GAMG:  Solving for p, Initial residual = 0.000268145, Final residual = 1.2221e-05, No Iterations 12
time step continuity errors : sum local = 1.51511e-09, global = 1.3739e-10
GAMG:  Solving for p, Initial residual = 0.00177555, Final residual = 7.56331e-05, No Iterations 4
GAMG:  Solving for p, Initial residual = 0.00050778, Final residual = 2.23099e-05, No Iterations 7
GAMG:  Solving for p, Initial residual = 0.000187721, Final residual = 9.74575e-07, No Iterations 54
time step continuity errors : sum local = 1.20823e-10, global = 1.37099e-11
PIMPLE: Iteration 2
smoothSolver:  Solving for Ux, Initial residual = 6.14941e-05, Final residual = 4.39113e-08, No Iterations 1
smoothSolver:  Solving for Uy, Initial residual = 0.000570044, Final residual = 9.20829e-09, No Iterations 2
smoothSolver:  Solving for Uz, Initial residual = 0.0012772, Final residual = 3.41462e-08, No Iterations 2
GAMG:  Solving for p, Initial residual = 0.00257916, Final residual = 0.000125697, No Iterations 4
GAMG:  Solving for p, Initial residual = 0.000825406, Final residual = 3.8451e-05, No Iterations 8
GAMG:  Solving for p, Initial residual = 0.000359672, Final residual = 1.76467e-05, No Iterations 14
time step continuity errors : sum local = 2.18662e-09, global = 2.96979e-10
GAMG:  Solving for p, Initial residual = 0.00182673, Final residual = 8.81377e-05, No Iterations 4
GAMG:  Solving for p, Initial residual = 0.000584466, Final residual = 2.62143e-05, No Iterations 10
GAMG:  Solving for p, Initial residual = 0.000274624, Final residual = 9.57745e-07, No Iterations 93
time step continuity errors : sum local = 1.18663e-10, global = -1.45544e-11, cumulative = -1.72274e-10
smoothSolver:  Solving for omega, Initial residual = 0.00147552, Final residual = 1.93346e-09, No Iterations 2
smoothSolver:  Solving for k, Initial residual = 0.000258541, Final residual = 1.96202e-09, No Iterations 2
ExecutionTime = 3282.63 s  ClockTime = 3314 s

Courant Number mean: 0.0882738 max: 4.60064
deltaT = 0.454545
Time = 199.545455s

PIMPLE: Iteration 1
smoothSolver:  Solving for Ux, Initial residual = 0.000200947, Final residual = 1.29845e-07, No Iterations 1
smoothSolver:  Solving for Uy, Initial residual = 0.00185541, Final residual = 1.68868e-06, No Iterations 1
smoothSolver:  Solving for Uz, Initial residual = 0.00417809, Final residual = 2.7392e-06, No Iterations 1
GAMG:  Solving for p, Initial residual = 0.00251823, Final residual = 0.00010817, No Iterations 4
GAMG:  Solving for p, Initial residual = 0.000734722, Final residual = 3.18004e-05, No Iterations 7
GAMG:  Solving for p, Initial residual = 0.000270482, Final residual = 1.24041e-05, No Iterations 12
time step continuity errors : sum local = 1.53717e-09, global = 1.39653e-10
GAMG:  Solving for p, Initial residual = 0.001764, Final residual = 7.60615e-05, No Iterations 4
GAMG:  Solving for p, Initial residual = 0.000509515, Final residual = 2.24875e-05, No Iterations 7
GAMG:  Solving for p, Initial residual = 0.000188962, Final residual = 9.74456e-07, No Iterations 54
time step continuity errors : sum local = 1.20759e-10, global = 1.37073e-11
PIMPLE: Iteration 2
smoothSolver:  Solving for Ux, Initial residual = 6.1384e-05, Final residual = 4.36446e-08, No Iterations 1
smoothSolver:  Solving for Uy, Initial residual = 0.000569818, Final residual = 9.19515e-09, No Iterations 2
smoothSolver:  Solving for Uz, Initial residual = 0.00127533, Final residual = 3.4017e-08, No Iterations 2
GAMG:  Solving for p, Initial residual = 0.00258254, Final residual = 0.000124774, No Iterations 4
GAMG:  Solving for p, Initial residual = 0.000815083, Final residual = 3.89754e-05, No Iterations 8
GAMG:  Solving for p, Initial residual = 0.000358763, Final residual = 1.78446e-05, No Iterations 14
time step continuity errors : sum local = 2.21027e-09, global = 2.98591e-10
GAMG:  Solving for p, Initial residual = 0.00182884, Final residual = 8.81196e-05, No Iterations 4
GAMG:  Solving for p, Initial residual = 0.000576892, Final residual = 2.65628e-05, No Iterations 10
GAMG:  Solving for p, Initial residual = 0.00027515, Final residual = 9.64284e-07, No Iterations 93
time step continuity errors : sum local = 1.19426e-10, global = -1.46452e-11, cumulative = -1.86919e-10
smoothSolver:  Solving for omega, Initial residual = 0.00147582, Final residual = 1.93902e-09, No Iterations 2
smoothSolver:  Solving for k, Initial residual = 0.000257926, Final residual = 1.9468e-09, No Iterations 2
ExecutionTime = 3287.13 s  ClockTime = 3318 s

Courant Number mean: 0.0882699 max: 4.60034
deltaT = 0.454545
Time = 200s

PIMPLE: Iteration 1
smoothSolver:  Solving for Ux, Initial residual = 0.0002006, Final residual = 1.29072e-07, No Iterations 1
smoothSolver:  Solving for Uy, Initial residual = 0.00185468, Final residual = 1.68359e-06, No Iterations 1
smoothSolver:  Solving for Uz, Initial residual = 0.00417199, Final residual = 2.72697e-06, No Iterations 1
GAMG:  Solving for p, Initial residual = 0.00251545, Final residual = 0.000109173, No Iterations 4
GAMG:  Solving for p, Initial residual = 0.000734036, Final residual = 3.19433e-05, No Iterations 7
GAMG:  Solving for p, Initial residual = 0.000271102, Final residual = 1.24182e-05, No Iterations 12
time step continuity errors : sum local = 1.53828e-09, global = 1.3963e-10
GAMG:  Solving for p, Initial residual = 0.00176207, Final residual = 7.64883e-05, No Iterations 4
GAMG:  Solving for p, Initial residual = 0.00050903, Final residual = 2.25614e-05, No Iterations 7
GAMG:  Solving for p, Initial residual = 0.000189443, Final residual = 9.6679e-07, No Iterations 54
time step continuity errors : sum local = 1.19759e-10, global = 1.35982e-11
PIMPLE: Iteration 2
smoothSolver:  Solving for Ux, Initial residual = 6.12746e-05, Final residual = 4.33792e-08, No Iterations 1
smoothSolver:  Solving for Uy, Initial residual = 0.000569538, Final residual = 9.19031e-09, No Iterations 2
smoothSolver:  Solving for Uz, Initial residual = 0.00127294, Final residual = 3.38876e-08, No Iterations 2
GAMG:  Solving for p, Initial residual = 0.00256815, Final residual = 0.000124539, No Iterations 4
GAMG:  Solving for p, Initial residual = 0.000808503, Final residual = 3.92668e-05, No Iterations 8
GAMG:  Solving for p, Initial residual = 0.000357929, Final residual = 1.76498e-05, No Iterations 15
time step continuity errors : sum local = 2.18524e-09, global = -3.27302e-10
GAMG:  Solving for p, Initial residual = 0.00182048, Final residual = 7.17723e-05, No Iterations 5
GAMG:  Solving for p, Initial residual = 0.000594777, Final residual = 2.80382e-05, No Iterations 8
GAMG:  Solving for p, Initial residual = 0.000246119, Final residual = 9.57524e-07, No Iterations 93
time step continuity errors : sum local = 1.18539e-10, global = -1.45494e-11, cumulative = -2.01468e-10
smoothSolver:  Solving for omega, Initial residual = 0.00147614, Final residual = 1.93945e-09, No Iterations 2
smoothSolver:  Solving for k, Initial residual = 0.000257323, Final residual = 1.93187e-09, No Iterations 2
ExecutionTime = 3293 s  ClockTime = 3325 s

End

