/*---------------------------------------------------------------------------*\
  =========                 |
  \\      /  F ield         | OpenFOAM: The Open Source CFD Toolbox
   \\    /   O peration     | Website:  https://openfoam.org
    \\  /    A nd           | Version:  13
     \\/     M anipulation  |
\*---------------------------------------------------------------------------*/
Build  : 13-441953dfbb42
Exec   : checkMesh
Date   : May 12 2026
Time   : 22:03:26
Host   : "openfoam"
PID    : 1713
I/O    : uncollated
Case   : /home/ubuntu/OpenFOAM/ubuntu-v13/run/wStockTest/urans/summer
nProcs : 1
sigFpe : Floating point exception trapping - not supported on this platform
fileModificationChecking : Monitoring run-time modified files using timeStampMaster (fileModificationSkew 10)
allowSystemOperations : Allowing user-supplied system call operations

// * * * * * * * * * * * * * * * * * * * * * * * * * * * * * * * * * * * * * //
Create time

Create mesh for time = 0

Time = 0s

Mesh stats
    points:           304199
    faces:            825922
    internal faces:   781776
    cells:            261151
    faces per cell:   6.1562
    boundary patches: 6
    point zones:      0
    face zones:       0
    cell zones:       0

Overall number of cells of each type:
    hexahedra:     245214
    prisms:        955
    wedges:        0
    pyramids:      0
    tet wedges:    1
    tetrahedra:    0
    polyhedra:     14981
    Breakdown of polyhedra by number of faces:
        faces   number of cells
            4   25
            5   543
            6   1649
            9   11736
           12   764
           15   206
           18   58

Checking topology...
    Boundary definition OK.
    Cell to face addressing OK.
    Point usage OK.
    Upper triangular ordering OK.
    Face vertices OK.
    Number of regions: 1 (OK).

Checking patch topology for multiply connected surfaces...
                   Patch    Faces   Points                  Surface topology
                   inlet      800      861  ok (non-closed singly connected)
                  outlet      800      861  ok (non-closed singly connected)
                  ground    27049    27812  ok (non-closed singly connected)
            frontAndBack     2000     2142  ok (non-closed singly connected)
                     sky     2000     2091  ok (non-closed singly connected)
               buildings    11497    12292  ok (non-closed singly connected)

Checking geometry...
    Overall domain bounding box (-1424.05 -1421.34 0) (3560.12 1421.34 146.5)
    Mesh has 3 geometric (non-empty/wedge) directions (1 1 1)
    Mesh has 3 solution (non-empty) directions (1 1 1)
    Max cell openness = 3.27939e-16 OK.
    Max aspect ratio = 28.7807 OK.
    Minimum face area = 0.736255. Maximum face area = 7085.48.  Face area magnitudes OK.
    Min volume = 14.5292. Max volume = 51922.9.  Total volume = 2.07438e+09.  Cell volumes OK.
    Mesh non-orthogonality Max: 79.8245 average: 16.9481
   *Number of severely non-orthogonal (> 70 degrees) faces: 35086.
    Non-orthogonality check OK.
    Face pyramids OK.
 ***Max skewness = 9.35338, 180 highly skew faces detected which may impair the quality of the results
    Coupled point location match (average 0) OK.

Failed 1 mesh checks.

End

