/*---------------------------------------------------------------------------*\
  =========                 |
  \\      /  F ield         | OpenFOAM: The Open Source CFD Toolbox
   \\    /   O peration     | Website:  https://openfoam.org
    \\  /    A nd           | Version:  13
     \\/     M anipulation  |
\*---------------------------------------------------------------------------*/
Build  : 13-441953dfbb42
Exec   : foamRun -solver incompressibleFluid
Date   : May 12 2026
Time   : 22:03:32
Host   : "openfoam"
PID    : 1716
I/O    : uncollated
Case   : /home/ubuntu/OpenFOAM/ubuntu-v13/run/wStockTest/urans/summer
nProcs : 1
sigFpe : Floating point exception trapping - not supported on this platform
fileModificationChecking : Monitoring run-time modified files using timeStampMaster (fileModificationSkew 10)
allowSystemOperations : Allowing user-supplied system call operations

// * * * * * * * * * * * * * * * * * * * * * * * * * * * * * * * * * * * * * //
Create time

Create mesh for time = 0

Selecting solver incompressibleFluid
Selecting viscosity model constant
Selecting turbulence model type RAS
    Selecting RAS turbulence model kOmegaSST
No MRF models present

Selecting patchDistMethod meshWave
Courant Number mean: 0.00438446 max: 0.127203

PIMPLE: No convergence criteria found


PIMPLE: No corrector convergence criteria found
        Calculations will do 2 corrections


PIMPLE: Operating solver in transient mode with 2 outer correctors



Starting time loop

Courant Number mean: 0.00438446 max: 0.127203
deltaT = 0.0595238
Time = 0.0595238s

PIMPLE: Iteration 1
smoothSolver:  Solving for Ux, Initial residual = 1, Final residual = 0.000320185, No Iterations 1
smoothSolver:  Solving for Uy, Initial residual = 1, Final residual = 0.00438813, No Iterations 1
smoothSolver:  Solving for Uz, Initial residual = 1, Final residual = 0.00219544, No Iterations 1
GAMG:  Solving for p, Initial residual = 1, Final residual = 0.0495332, No Iterations 47
GAMG:  Solving for p, Initial residual = 0.71209, Final residual = 0.0264952, No Iterations 3
GAMG:  Solving for p, Initial residual = 0.108117, Final residual = 0.00495074, No Iterations 5
time step continuity errors : sum local = 1.12629e-06, global = -8.27444e-08
GAMG:  Solving for p, Initial residual = 0.137082, Final residual = 0.00677014, No Iterations 43
GAMG:  Solving for p, Initial residual = 0.412996, Final residual = 0.0155735, No Iterations 3
GAMG:  Solving for p, Initial residual = 0.0757861, Final residual = 9.57574e-07, No Iterations 275
time step continuity errors : sum local = 2.20701e-10, global = -2.25774e-11
PIMPLE: Iteration 2
smoothSolver:  Solving for Ux, Initial residual = 0.0079945, Final residual = 7.41505e-09, No Iterations 2
smoothSolver:  Solving for Uy, Initial residual = 0.0165735, Final residual = 1.0656e-08, No Iterations 2
smoothSolver:  Solving for Uz, Initial residual = 0.0205269, Final residual = 7.5786e-08, No Iterations 2
GAMG:  Solving for p, Initial residual = 0.231194, Final residual = 0.010814, No Iterations 34
GAMG:  Solving for p, Initial residual = 0.46985, Final residual = 0.0175879, No Iterations 3
GAMG:  Solving for p, Initial residual = 0.0811398, Final residual = 0.00400341, No Iterations 6
time step continuity errors : sum local = 8.31988e-07, global = 9.92957e-08
GAMG:  Solving for p, Initial residual = 0.102223, Final residual = 0.0050559, No Iterations 31
GAMG:  Solving for p, Initial residual = 0.288263, Final residual = 0.0110441, No Iterations 3
GAMG:  Solving for p, Initial residual = 0.0572764, Final residual = 9.67156e-07, No Iterations 273
time step continuity errors : sum local = 2.0481e-10, global = -2.08703e-11, cumulative = -2.08703e-11
smoothSolver:  Solving for omega, Initial residual = 0.00822283, Final residual = 2.64703e-10, No Iterations 2
smoothSolver:  Solving for k, Initial residual = 1, Final residual = 8.8981e-08, No Iterations 2
ExecutionTime = 14.142 s  ClockTime = 15 s

Courant Number mean: 0.00540731 max: 1.37131
deltaT = 0.0705782
Time = 0.130102s

PIMPLE: Iteration 1
smoothSolver:  Solving for Ux, Initial residual = 0.125703, Final residual = 2.48323e-05, No Iterations 1
smoothSolver:  Solving for Uy, Initial residual = 0.315217, Final residual = 0.000131125, No Iterations 1
smoothSolver:  Solving for Uz, Initial residual = 0.339398, Final residual = 0.000349094, No Iterations 1
GAMG:  Solving for p, Initial residual = 0.206038, Final residual = 0.00990867, No Iterations 14
GAMG:  Solving for p, Initial residual = 0.2796, Final residual = 0.0134528, No Iterations 3
GAMG:  Solving for p, Initial residual = 0.0931913, Final residual = 0.00418676, No Iterations 15
time step continuity errors : sum local = 5.12962e-07, global = -4.36725e-08
GAMG:  Solving for p, Initial residual = 0.161712, Final residual = 0.00714966, No Iterations 16
GAMG:  Solving for p, Initial residual = 0.221251, Final residual = 0.0104286, No Iterations 3
GAMG:  Solving for p, Initial residual = 0.0688136, Final residual = 9.60508e-07, No Iterations 207
time step continuity errors : sum local = 1.17399e-10, global = -1.22689e-11
PIMPLE: Iteration 2
smoothSolver:  Solving for Ux, Initial residual = 0.0211122, Final residual = 1.90726e-08, No Iterations 2
smoothSolver:  Solving for Uy, Initial residual = 0.0503074, Final residual = 1.20722e-09, No Iterations 3
smoothSolver:  Solving for Uz, Initial residual = 0.0605421, Final residual = 6.04989e-09, No Iterations 3
GAMG:  Solving for p, Initial residual = 0.199798, Final residual = 0.00920678, No Iterations 16
GAMG:  Solving for p, Initial residual = 0.301448, Final residual = 0.013504, No Iterations 3
GAMG:  Solving for p, Initial residual = 0.0865886, Final residual = 0.00387202, No Iterations 13
time step continuity errors : sum local = 5.15103e-07, global = -4.41438e-08
GAMG:  Solving for p, Initial residual = 0.162068, Final residual = 0.00761983, No Iterations 16
GAMG:  Solving for p, Initial residual = 0.224338, Final residual = 0.0103953, No Iterations 3
GAMG:  Solving for p, Initial residual = 0.0615031, Final residual = 9.44859e-07, No Iterations 201
time step continuity errors : sum local = 1.27385e-10, global = -1.34399e-11, cumulative = -3.43102e-11
smoothSolver:  Solving for omega, Initial residual = 0.00651603, Final residual = 7.49922e-11, No Iterations 2
smoothSolver:  Solving for k, Initial residual = 0.987708, Final residual = 3.11747e-08, No Iterations 2
ExecutionTime = 23.7494 s  ClockTime = 24 s

Courant Number mean: 0.00642877 max: 1.75578
deltaT = 0.0839638
Time = 0.214066s

PIMPLE: Iteration 1
smoothSolver:  Solving for Ux, Initial residual = 0.0794993, Final residual = 1.25599e-05, No Iterations 1
smoothSolver:  Solving for Uy, Initial residual = 0.119488, Final residual = 7.60265e-05, No Iterations 1
smoothSolver:  Solving for Uz, Initial residual = 0.156008, Final residual = 0.000191304, No Iterations 1
GAMG:  Solving for p, Initial residual = 0.179589, Final residual = 0.00796721, No Iterations 12
GAMG:  Solving for p, Initial residual = 0.191482, Final residual = 0.00890471, No Iterations 3
GAMG:  Solving for p, Initial residual = 0.0474073, Final residual = 0.00227382, No Iterations 15
time step continuity errors : sum local = 3.86023e-07, global = -2.75166e-08
GAMG:  Solving for p, Initial residual = 0.136475, Final residual = 0.00608824, No Iterations 12
GAMG:  Solving for p, Initial residual = 0.135622, Final residual = 0.00656967, No Iterations 3
GAMG:  Solving for p, Initial residual = 0.0333198, Final residual = 9.72247e-07, No Iterations 241
time step continuity errors : sum local = 1.67126e-10, global = -1.70895e-11
PIMPLE: Iteration 2
smoothSolver:  Solving for Ux, Initial residual = 0.0186442, Final residual = 1.4903e-08, No Iterations 2
smoothSolver:  Solving for Uy, Initial residual = 0.0228851, Final residual = 1.31923e-09, No Iterations 3
smoothSolver:  Solving for Uz, Initial residual = 0.0344187, Final residual = 6.37122e-09, No Iterations 3
GAMG:  Solving for p, Initial residual = 0.15892, Final residual = 0.00778437, No Iterations 12
GAMG:  Solving for p, Initial residual = 0.182892, Final residual = 0.00838593, No Iterations 3
GAMG:  Solving for p, Initial residual = 0.0431039, Final residual = 0.00198057, No Iterations 15
time step continuity errors : sum local = 3.66044e-07, global = -2.64267e-08
GAMG:  Solving for p, Initial residual = 0.118939, Final residual = 0.00577468, No Iterations 12
GAMG:  Solving for p, Initial residual = 0.127722, Final residual = 0.00608884, No Iterations 3
GAMG:  Solving for p, Initial residual = 0.0302781, Final residual = 9.59316e-07, No Iterations 229
time step continuity errors : sum local = 1.79566e-10, global = -1.83675e-11, cumulative = -5.26777e-11
smoothSolver:  Solving for omega, Initial residual = 0.0096014, Final residual = 1.88976e-10, No Iterations 2
smoothSolver:  Solving for k, Initial residual = 0.978288, Final residual = 5.13918e-08, No Iterations 2
ExecutionTime = 34.2817 s  ClockTime = 35 s

Courant Number mean: 0.00769481 max: 2.13633
deltaT = 0.099707
Time = 0.313773s

PIMPLE: Iteration 1
smoothSolver:  Solving for Ux, Initial residual = 0.0720975, Final residual = 8.25179e-06, No Iterations 1
smoothSolver:  Solving for Uy, Initial residual = 0.0416002, Final residual = 4.08381e-05, No Iterations 1
smoothSolver:  Solving for Uz, Initial residual = 0.0905816, Final residual = 9.26003e-05, No Iterations 1
GAMG:  Solving for p, Initial residual = 0.152386, Final residual = 0.00732162, No Iterations 11
GAMG:  Solving for p, Initial residual = 0.157452, Final residual = 0.00696022, No Iterations 3
GAMG:  Solving for p, Initial residual = 0.0357745, Final residual = 0.00165333, No Iterations 14
time step continuity errors : sum local = 4.2429e-07, global = -2.87477e-08
GAMG:  Solving for p, Initial residual = 0.109915, Final residual = 0.00535634, No Iterations 11
GAMG:  Solving for p, Initial residual = 0.108577, Final residual = 0.00507138, No Iterations 3
GAMG:  Solving for p, Initial residual = 0.0252596, Final residual = 9.62678e-07, No Iterations 216
time step continuity errors : sum local = 2.4921e-10, global = -2.5573e-11
PIMPLE: Iteration 2
smoothSolver:  Solving for Ux, Initial residual = 0.0188534, Final residual = 9.78653e-09, No Iterations 2
smoothSolver:  Solving for Uy, Initial residual = 0.00619004, Final residual = 7.51767e-08, No Iterations 2
smoothSolver:  Solving for Uz, Initial residual = 0.0222924, Final residual = 3.62503e-09, No Iterations 3
GAMG:  Solving for p, Initial residual = 0.131387, Final residual = 0.00569526, No Iterations 10
GAMG:  Solving for p, Initial residual = 0.122904, Final residual = 0.00557664, No Iterations 3
GAMG:  Solving for p, Initial residual = 0.0277617, Final residual = 0.00138178, No Iterations 13
time step continuity errors : sum local = 3.62874e-07, global = -2.63799e-08
GAMG:  Solving for p, Initial residual = 0.0931619, Final residual = 0.00410479, No Iterations 10
GAMG:  Solving for p, Initial residual = 0.0839479, Final residual = 0.00401088, No Iterations 3
GAMG:  Solving for p, Initial residual = 0.0195505, Final residual = 9.63522e-07, No Iterations 205
time step continuity errors : sum local = 2.54655e-10, global = -2.61568e-11, cumulative = -7.88345e-11
smoothSolver:  Solving for omega, Initial residual = 0.0118775, Final residual = 4.1059e-10, No Iterations 2
smoothSolver:  Solving for k, Initial residual = 0.858853, Final residual = 7.99507e-08, No Iterations 2
ExecutionTime = 43.783 s  ClockTime = 44 s

Courant Number mean: 0.00921313 max: 2.55827
deltaT = 0.117156
Time = 0.430928s

PIMPLE: Iteration 1
smoothSolver:  Solving for Ux, Initial residual = 0.0704715, Final residual = 6.66255e-06, No Iterations 1
smoothSolver:  Solving for Uy, Initial residual = 0.0285235, Final residual = 2.7848e-05, No Iterations 1
smoothSolver:  Solving for Uz, Initial residual = 0.0981986, Final residual = 0.000142908, No Iterations 1
GAMG:  Solving for p, Initial residual = 0.153577, Final residual = 0.00606722, No Iterations 5
GAMG:  Solving for p, Initial residual = 0.0700247, Final residual = 0.00307414, No Iterations 4
GAMG:  Solving for p, Initial residual = 0.0169887, Final residual = 0.000818952, No Iterations 14
time step continuity errors : sum local = 2.56451e-07, global = -1.67816e-08
GAMG:  Solving for p, Initial residual = 0.108967, Final residual = 0.0043112, No Iterations 5
GAMG:  Solving for p, Initial residual = 0.0477723, Final residual = 0.00222009, No Iterations 4
GAMG:  Solving for p, Initial residual = 0.0119056, Final residual = 9.64534e-07, No Iterations 204
time step continuity errors : sum local = 3.0357e-10, global = -3.12472e-11
PIMPLE: Iteration 2
smoothSolver:  Solving for Ux, Initial residual = 0.0195551, Final residual = 8.37913e-09, No Iterations 2
smoothSolver:  Solving for Uy, Initial residual = 0.0103252, Final residual = 2.04601e-09, No Iterations 3
smoothSolver:  Solving for Uz, Initial residual = 0.0311719, Final residual = 1.57504e-08, No Iterations 3
GAMG:  Solving for p, Initial residual = 0.133585, Final residual = 0.00604954, No Iterations 4
GAMG:  Solving for p, Initial residual = 0.0539425, Final residual = 0.00236464, No Iterations 4
GAMG:  Solving for p, Initial residual = 0.0130377, Final residual = 0.000633176, No Iterations 9
time step continuity errors : sum local = 1.98473e-07, global = -1.34735e-08
GAMG:  Solving for p, Initial residual = 0.0934051, Final residual = 0.00429819, No Iterations 4
GAMG:  Solving for p, Initial residual = 0.0371516, Final residual = 0.00172689, No Iterations 4
GAMG:  Solving for p, Initial residual = 0.00932494, Final residual = 9.52358e-07, No Iterations 189
time step continuity errors : sum local = 2.99296e-10, global = -3.08075e-11, cumulative = -1.09642e-10
smoothSolver:  Solving for omega, Initial residual = 0.0139834, Final residual = 8.53178e-10, No Iterations 2
smoothSolver:  Solving for k, Initial residual = 0.664488, Final residual = 8.9032e-10, No Iterations 3
ExecutionTime = 52.5498 s  ClockTime = 53 s

Courant Number mean: 0.0109249 max: 2.82857
deltaT = 0.138457
Time = 0.569385s

PIMPLE: Iteration 1
smoothSolver:  Solving for Ux, Initial residual = 0.0717712, Final residual = 9.21975e-06, No Iterations 1
smoothSolver:  Solving for Uy, Initial residual = 0.0540562, Final residual = 6.199e-05, No Iterations 1
smoothSolver:  Solving for Uz, Initial residual = 0.120951, Final residual = 0.000244319, No Iterations 1
GAMG:  Solving for p, Initial residual = 0.134398, Final residual = 0.00641512, No Iterations 4
GAMG:  Solving for p, Initial residual = 0.0521366, Final residual = 0.00245781, No Iterations 5
GAMG:  Solving for p, Initial residual = 0.0159673, Final residual = 0.000695354, No Iterations 12
time step continuity errors : sum local = 2.76325e-07, global = -1.89684e-08
GAMG:  Solving for p, Initial residual = 0.0959635, Final residual = 0.00462725, No Iterations 4
GAMG:  Solving for p, Initial residual = 0.0364578, Final residual = 0.00180215, No Iterations 5
GAMG:  Solving for p, Initial residual = 0.0113144, Final residual = 9.7901e-07, No Iterations 196
time step continuity errors : sum local = 3.88574e-10, global = -4.01352e-11
PIMPLE: Iteration 2
smoothSolver:  Solving for Ux, Initial residual = 0.0203587, Final residual = 1.59562e-08, No Iterations 2
smoothSolver:  Solving for Uy, Initial residual = 0.0155252, Final residual = 5.92951e-09, No Iterations 3
smoothSolver:  Solving for Uz, Initial residual = 0.0312491, Final residual = 2.92831e-08, No Iterations 3
GAMG:  Solving for p, Initial residual = 0.112221, Final residual = 0.0051769, No Iterations 5
GAMG:  Solving for p, Initial residual = 0.0503463, Final residual = 0.00247486, No Iterations 5
GAMG:  Solving for p, Initial residual = 0.0157677, Final residual = 0.000752275, No Iterations 12
time step continuity errors : sum local = 2.99269e-07, global = 2.63562e-08
GAMG:  Solving for p, Initial residual = 0.0802278, Final residual = 0.00373256, No Iterations 5
GAMG:  Solving for p, Initial residual = 0.0351216, Final residual = 0.00157469, No Iterations 6
GAMG:  Solving for p, Initial residual = 0.0116597, Final residual = 9.95862e-07, No Iterations 196
time step continuity errors : sum local = 3.95625e-10, global = -4.09347e-11, cumulative = -1.50577e-10
smoothSolver:  Solving for omega, Initial residual = 0.016366, Final residual = 1.77998e-09, No Iterations 2
smoothSolver:  Solving for k, Initial residual = 0.592746, Final residual = 1.65584e-09, No Iterations 3
ExecutionTime = 61.5987 s  ClockTime = 62 s

Courant Number mean: 0.0130459 max: 3.03958
deltaT = 0.164097
Time = 0.733482s

PIMPLE: Iteration 1
smoothSolver:  Solving for Ux, Initial residual = 0.0731807, Final residual = 1.18906e-05, No Iterations 1
smoothSolver:  Solving for Uy, Initial residual = 0.0465954, Final residual = 7.27479e-05, No Iterations 1
smoothSolver:  Solving for Uz, Initial residual = 0.0963989, Final residual = 0.000210543, No Iterations 1
GAMG:  Solving for p, Initial residual = 0.0912521, Final residual = 0.00393053, No Iterations 6
GAMG:  Solving for p, Initial residual = 0.0444409, Final residual = 0.00216169, No Iterations 5
GAMG:  Solving for p, Initial residual = 0.013637, Final residual = 0.000608888, No Iterations 13
time step continuity errors : sum local = 3.18454e-07, global = 2.56806e-08
GAMG:  Solving for p, Initial residual = 0.0658533, Final residual = 0.00283471, No Iterations 6
GAMG:  Solving for p, Initial residual = 0.0308544, Final residual = 0.001332, No Iterations 6
GAMG:  Solving for p, Initial residual = 0.00994993, Final residual = 9.51451e-07, No Iterations 136
time step continuity errors : sum local = 4.97319e-10, global = 5.11028e-11
PIMPLE: Iteration 2
smoothSolver:  Solving for Ux, Initial residual = 0.0208905, Final residual = 2.14554e-08, No Iterations 2
smoothSolver:  Solving for Uy, Initial residual = 0.0114952, Final residual = 8.99872e-09, No Iterations 3
smoothSolver:  Solving for Uz, Initial residual = 0.025351, Final residual = 2.52364e-08, No Iterations 3
GAMG:  Solving for p, Initial residual = 0.0745588, Final residual = 0.00362879, No Iterations 6
GAMG:  Solving for p, Initial residual = 0.0393552, Final residual = 0.00169909, No Iterations 6
GAMG:  Solving for p, Initial residual = 0.0125568, Final residual = 0.000599128, No Iterations 12
time step continuity errors : sum local = 3.14238e-07, global = 2.48944e-08
GAMG:  Solving for p, Initial residual = 0.0536607, Final residual = 0.0026023, No Iterations 6
GAMG:  Solving for p, Initial residual = 0.0272501, Final residual = 0.00124714, No Iterations 6
GAMG:  Solving for p, Initial residual = 0.00890597, Final residual = 9.89913e-07, No Iterations 142
time step continuity errors : sum local = 5.19093e-10, global = 4.92077e-11, cumulative = -1.01369e-10
smoothSolver:  Solving for omega, Initial residual = 0.0190522, Final residual = 3.78876e-09, No Iterations 2
smoothSolver:  Solving for k, Initial residual = 0.576226, Final residual = 3.58473e-09, No Iterations 3
ExecutionTime = 68.5217 s  ClockTime = 69 s

Courant Number mean: 0.0156483 max: 3.29043
deltaT = 0.193933
Time = 0.927415s

PIMPLE: Iteration 1
smoothSolver:  Solving for Ux, Initial residual = 0.0740105, Final residual = 1.46151e-05, No Iterations 1
smoothSolver:  Solving for Uy, Initial residual = 0.0219713, Final residual = 5.33645e-05, No Iterations 1
smoothSolver:  Solving for Uz, Initial residual = 0.077495, Final residual = 0.0001697, No Iterations 1
GAMG:  Solving for p, Initial residual = 0.0760885, Final residual = 0.00376453, No Iterations 4
GAMG:  Solving for p, Initial residual = 0.0293728, Final residual = 0.0012231, No Iterations 8
GAMG:  Solving for p, Initial residual = 0.011096, Final residual = 0.000489353, No Iterations 12
time step continuity errors : sum local = 3.37725e-07, global = 2.19017e-08
GAMG:  Solving for p, Initial residual = 0.0542803, Final residual = 0.00268266, No Iterations 4
GAMG:  Solving for p, Initial residual = 0.0200458, Final residual = 0.000917211, No Iterations 8
GAMG:  Solving for p, Initial residual = 0.00793538, Final residual = 9.746e-07, No Iterations 166
time step continuity errors : sum local = 6.71949e-10, global = 7.04598e-11
PIMPLE: Iteration 2
smoothSolver:  Solving for Ux, Initial residual = 0.0212393, Final residual = 2.59984e-08, No Iterations 2
smoothSolver:  Solving for Uy, Initial residual = 0.00522959, Final residual = 1.10665e-08, No Iterations 3
smoothSolver:  Solving for Uz, Initial residual = 0.0218167, Final residual = 3.25852e-08, No Iterations 3
GAMG:  Solving for p, Initial residual = 0.0640624, Final residual = 0.00302804, No Iterations 4
GAMG:  Solving for p, Initial residual = 0.0236083, Final residual = 0.00101571, No Iterations 7
GAMG:  Solving for p, Initial residual = 0.00825557, Final residual = 0.000375476, No Iterations 12
time step continuity errors : sum local = 2.60763e-07, global = 1.84471e-08
GAMG:  Solving for p, Initial residual = 0.0454246, Final residual = 0.00214469, No Iterations 4
GAMG:  Solving for p, Initial residual = 0.0163252, Final residual = 0.000743436, No Iterations 7
GAMG:  Solving for p, Initial residual = 0.00586649, Final residual = 9.74719e-07, No Iterations 142
time step continuity errors : sum local = 6.76609e-10, global = 7.31751e-11, cumulative = -2.81939e-11
smoothSolver:  Solving for omega, Initial residual = 0.0217233, Final residual = 7.65374e-09, No Iterations 2
smoothSolver:  Solving for k, Initial residual = 0.59375, Final residual = 6.77285e-09, No Iterations 3
ExecutionTime = 75.7604 s  ClockTime = 76 s

Courant Number mean: 0.0187518 max: 3.73317
deltaT = 0.226255
Time = 1.15367s

PIMPLE: Iteration 1
smoothSolver:  Solving for Ux, Initial residual = 0.0740931, Final residual = 1.86591e-05, No Iterations 1
smoothSolver:  Solving for Uy, Initial residual = 0.0236064, Final residual = 6.92289e-05, No Iterations 1
smoothSolver:  Solving for Uz, Initial residual = 0.072231, Final residual = 0.000178906, No Iterations 1
GAMG:  Solving for p, Initial residual = 0.0655227, Final residual = 0.00313951, No Iterations 3
GAMG:  Solving for p, Initial residual = 0.0186151, Final residual = 0.000854099, No Iterations 6
GAMG:  Solving for p, Initial residual = 0.00590342, Final residual = 0.000266166, No Iterations 14
time step continuity errors : sum local = 2.44594e-07, global = 1.94421e-08
GAMG:  Solving for p, Initial residual = 0.0460042, Final residual = 0.0022048, No Iterations 3
GAMG:  Solving for p, Initial residual = 0.0127275, Final residual = 0.000631657, No Iterations 6
GAMG:  Solving for p, Initial residual = 0.00416391, Final residual = 9.60956e-07, No Iterations 174
time step continuity errors : sum local = 8.80854e-10, global = 9.23119e-11
PIMPLE: Iteration 2
smoothSolver:  Solving for Ux, Initial residual = 0.0214549, Final residual = 4.17568e-08, No Iterations 2
smoothSolver:  Solving for Uy, Initial residual = 0.00700792, Final residual = 2.14727e-08, No Iterations 3
smoothSolver:  Solving for Uz, Initial residual = 0.0200964, Final residual = 4.62063e-08, No Iterations 3
GAMG:  Solving for p, Initial residual = 0.0529448, Final residual = 0.00191616, No Iterations 4
GAMG:  Solving for p, Initial residual = 0.0170289, Final residual = 0.000750542, No Iterations 4
GAMG:  Solving for p, Initial residual = 0.00451063, Final residual = 0.000224922, No Iterations 9
time step continuity errors : sum local = 2.079e-07, global = 1.39249e-08
GAMG:  Solving for p, Initial residual = 0.0368871, Final residual = 0.00135059, No Iterations 4
GAMG:  Solving for p, Initial residual = 0.0116775, Final residual = 0.000558057, No Iterations 4
GAMG:  Solving for p, Initial residual = 0.00323886, Final residual = 9.77622e-07, No Iterations 143
time step continuity errors : sum local = 9.02282e-10, global = 9.48896e-11, cumulative = 6.66956e-11
smoothSolver:  Solving for omega, Initial residual = 0.024732, Final residual = 1.47692e-08, No Iterations 2
smoothSolver:  Solving for k, Initial residual = 0.636118, Final residual = 1.33601e-08, No Iterations 3
ExecutionTime = 82.9379 s  ClockTime = 83 s

Courant Number mean: 0.0222291 max: 4.31898
deltaT = 0.256422
--> FOAM Warning : 
    From function virtual Foam::Time& Foam::Time::operator++()
    in file db/Time/Time.C at line 1304
    Increased the timePrecision from 6 to 7 to distinguish between timeNames at time 1.410091
Time = 1.410091s

PIMPLE: Iteration 1
smoothSolver:  Solving for Ux, Initial residual = 0.0729524, Final residual = 2.31454e-05, No Iterations 1
smoothSolver:  Solving for Uy, Initial residual = 0.0251871, Final residual = 8.49831e-05, No Iterations 1
smoothSolver:  Solving for Uz, Initial residual = 0.0623294, Final residual = 0.000160313, No Iterations 1
GAMG:  Solving for p, Initial residual = 0.0460515, Final residual = 0.00197933, No Iterations 4
GAMG:  Solving for p, Initial residual = 0.0149757, Final residual = 0.000674358, No Iterations 5
GAMG:  Solving for p, Initial residual = 0.00431412, Final residual = 0.000192994, No Iterations 14
time step continuity errors : sum local = 2.25258e-07, global = 1.69986e-08
GAMG:  Solving for p, Initial residual = 0.0319972, Final residual = 0.00138592, No Iterations 4
GAMG:  Solving for p, Initial residual = 0.0102821, Final residual = 0.000497647, No Iterations 5
GAMG:  Solving for p, Initial residual = 0.00303814, Final residual = 9.9141e-07, No Iterations 168
time step continuity errors : sum local = 1.1542e-09, global = 1.21386e-10
PIMPLE: Iteration 2
smoothSolver:  Solving for Ux, Initial residual = 0.0214111, Final residual = 6.26721e-08, No Iterations 2
smoothSolver:  Solving for Uy, Initial residual = 0.00659705, Final residual = 3.22527e-08, No Iterations 3
smoothSolver:  Solving for Uz, Initial residual = 0.0172759, Final residual = 4.6842e-08, No Iterations 3
GAMG:  Solving for p, Initial residual = 0.0356683, Final residual = 0.00137729, No Iterations 5
GAMG:  Solving for p, Initial residual = 0.0140766, Final residual = 0.00065562, No Iterations 4
GAMG:  Solving for p, Initial residual = 0.00384312, Final residual = 0.000171774, No Iterations 12
time step continuity errors : sum local = 2.01951e-07, global = 1.26419e-08
GAMG:  Solving for p, Initial residual = 0.0247588, Final residual = 0.000959153, No Iterations 5
GAMG:  Solving for p, Initial residual = 0.00966389, Final residual = 0.000470127, No Iterations 4
GAMG:  Solving for p, Initial residual = 0.00267365, Final residual = 9.46793e-07, No Iterations 136
time step continuity errors : sum local = 1.11197e-09, global = 1.1672e-10, cumulative = 1.83416e-10
smoothSolver:  Solving for omega, Initial residual = 0.0272689, Final residual = 2.51383e-08, No Iterations 2
smoothSolver:  Solving for k, Initial residual = 0.687121, Final residual = 2.38537e-08, No Iterations 3
ExecutionTime = 90.0314 s  ClockTime = 91 s

Courant Number mean: 0.0256453 max: 4.9247
deltaT = 0.256422
Time = 1.666513s

PIMPLE: Iteration 1
smoothSolver:  Solving for Ux, Initial residual = 0.0652177, Final residual = 2.1156e-05, No Iterations 1
smoothSolver:  Solving for Uy, Initial residual = 0.0156805, Final residual = 5.77717e-05, No Iterations 1
smoothSolver:  Solving for Uz, Initial residual = 0.0473158, Final residual = 0.000103693, No Iterations 1
GAMG:  Solving for p, Initial residual = 0.0332607, Final residual = 0.00159384, No Iterations 4
GAMG:  Solving for p, Initial residual = 0.0123559, Final residual = 0.000529829, No Iterations 6
GAMG:  Solving for p, Initial residual = 0.00387958, Final residual = 0.000181286, No Iterations 14
time step continuity errors : sum local = 2.1851e-07, global = -1.4197e-08
GAMG:  Solving for p, Initial residual = 0.023247, Final residual = 0.00110802, No Iterations 4
GAMG:  Solving for p, Initial residual = 0.00841433, Final residual = 0.00038757, No Iterations 6
GAMG:  Solving for p, Initial residual = 0.00271519, Final residual = 9.78133e-07, No Iterations 166
time step continuity errors : sum local = 1.18003e-09, global = -1.24411e-10
PIMPLE: Iteration 2
smoothSolver:  Solving for Ux, Initial residual = 0.0195328, Final residual = 5.63592e-08, No Iterations 2
smoothSolver:  Solving for Uy, Initial residual = 0.00398529, Final residual = 2.30005e-08, No Iterations 3
smoothSolver:  Solving for Uz, Initial residual = 0.0134655, Final residual = 2.72516e-08, No Iterations 3
GAMG:  Solving for p, Initial residual = 0.0283026, Final residual = 0.00127063, No Iterations 5
GAMG:  Solving for p, Initial residual = 0.0113723, Final residual = 0.000456353, No Iterations 7
GAMG:  Solving for p, Initial residual = 0.00364252, Final residual = 0.0001759, No Iterations 14
time step continuity errors : sum local = 2.14148e-07, global = -1.58938e-08
GAMG:  Solving for p, Initial residual = 0.0197846, Final residual = 0.000898573, No Iterations 5
GAMG:  Solving for p, Initial residual = 0.00774969, Final residual = 0.000342991, No Iterations 7
GAMG:  Solving for p, Initial residual = 0.00260279, Final residual = 9.46935e-07, No Iterations 168
time step continuity errors : sum local = 1.15449e-09, global = -1.21733e-10, cumulative = 6.16823e-11
smoothSolver:  Solving for omega, Initial residual = 0.0267188, Final residual = 2.66806e-08, No Iterations 2
smoothSolver:  Solving for k, Initial residual = 0.644262, Final residual = 2.35844e-08, No Iterations 3
ExecutionTime = 97.8518 s  ClockTime = 98 s

Courant Number mean: 0.0261096 max: 4.9705
deltaT = 0.256422
Time = 1.922936s

PIMPLE: Iteration 1
smoothSolver:  Solving for Ux, Initial residual = 0.0604711, Final residual = 1.93647e-05, No Iterations 1
smoothSolver:  Solving for Uy, Initial residual = 0.0105445, Final residual = 3.66364e-05, No Iterations 1
smoothSolver:  Solving for Uz, Initial residual = 0.0377997, Final residual = 8.42675e-05, No Iterations 1
GAMG:  Solving for p, Initial residual = 0.0289548, Final residual = 0.00106694, No Iterations 4
GAMG:  Solving for p, Initial residual = 0.00819988, Final residual = 0.000404508, No Iterations 6
GAMG:  Solving for p, Initial residual = 0.00270966, Final residual = 0.00012922, No Iterations 18
time step continuity errors : sum local = 1.58065e-07, global = -1.45903e-08
GAMG:  Solving for p, Initial residual = 0.0202953, Final residual = 0.000741383, No Iterations 4
GAMG:  Solving for p, Initial residual = 0.00549188, Final residual = 0.000267731, No Iterations 8
GAMG:  Solving for p, Initial residual = 0.0021879, Final residual = 9.77381e-07, No Iterations 170
time step continuity errors : sum local = 1.19862e-09, global = -1.26342e-10
PIMPLE: Iteration 2
smoothSolver:  Solving for Ux, Initial residual = 0.018299, Final residual = 4.94785e-08, No Iterations 2
smoothSolver:  Solving for Uy, Initial residual = 0.00317988, Final residual = 1.64185e-08, No Iterations 3
smoothSolver:  Solving for Uz, Initial residual = 0.0108979, Final residual = 1.96116e-08, No Iterations 3
GAMG:  Solving for p, Initial residual = 0.0245423, Final residual = 0.000959367, No Iterations 4
GAMG:  Solving for p, Initial residual = 0.00697924, Final residual = 0.000300981, No Iterations 10
GAMG:  Solving for p, Initial residual = 0.00288576, Final residual = 0.000139429, No Iterations 12
time step continuity errors : sum local = 1.72169e-07, global = -1.44277e-08
GAMG:  Solving for p, Initial residual = 0.017076, Final residual = 0.000673091, No Iterations 4
GAMG:  Solving for p, Initial residual = 0.00474156, Final residual = 0.000230094, No Iterations 10
GAMG:  Solving for p, Initial residual = 0.00216804, Final residual = 9.46155e-07, No Iterations 166
time step continuity errors : sum local = 1.17024e-09, global = -1.23342e-10, cumulative = -6.16597e-11
smoothSolver:  Solving for omega, Initial residual = 0.0259292, Final residual = 2.62554e-08, No Iterations 2
smoothSolver:  Solving for k, Initial residual = 0.624664, Final residual = 2.28436e-08, No Iterations 3
ExecutionTime = 105.735 s  ClockTime = 106 s

Courant Number mean: 0.0265732 max: 5.00051
deltaT = 0.256422
Time = 2.179358s

PIMPLE: Iteration 1
smoothSolver:  Solving for Ux, Initial residual = 0.0570693, Final residual = 1.82705e-05, No Iterations 1
smoothSolver:  Solving for Uy, Initial residual = 0.0100912, Final residual = 2.85872e-05, No Iterations 1
smoothSolver:  Solving for Uz, Initial residual = 0.0313206, Final residual = 7.09299e-05, No Iterations 1
GAMG:  Solving for p, Initial residual = 0.0234507, Final residual = 0.0010869, No Iterations 3
GAMG:  Solving for p, Initial residual = 0.00610894, Final residual = 0.000301296, No Iterations 6
GAMG:  Solving for p, Initial residual = 0.00208342, Final residual = 9.87405e-05, No Iterations 18
time step continuity errors : sum local = 1.21982e-07, global = -1.16962e-08
GAMG:  Solving for p, Initial residual = 0.0164194, Final residual = 0.000728748, No Iterations 3
GAMG:  Solving for p, Initial residual = 0.00417296, Final residual = 0.000172983, No Iterations 9
GAMG:  Solving for p, Initial residual = 0.00192815, Final residual = 9.74417e-07, No Iterations 164
time step continuity errors : sum local = 1.20741e-09, global = -1.27125e-10
PIMPLE: Iteration 2
smoothSolver:  Solving for Ux, Initial residual = 0.0173852, Final residual = 4.54679e-08, No Iterations 2
smoothSolver:  Solving for Uy, Initial residual = 0.00296151, Final residual = 1.37504e-08, No Iterations 3
smoothSolver:  Solving for Uz, Initial residual = 0.00915902, Final residual = 1.39973e-08, No Iterations 3
GAMG:  Solving for p, Initial residual = 0.0193943, Final residual = 0.000957124, No Iterations 3
GAMG:  Solving for p, Initial residual = 0.00501116, Final residual = 0.000247019, No Iterations 8
GAMG:  Solving for p, Initial residual = 0.00199188, Final residual = 9.51483e-05, No Iterations 16
time step continuity errors : sum local = 1.18168e-07, global = -1.129e-08
GAMG:  Solving for p, Initial residual = 0.0135493, Final residual = 0.0005234, No Iterations 4
GAMG:  Solving for p, Initial residual = 0.00368923, Final residual = 0.000165748, No Iterations 7
GAMG:  Solving for p, Initial residual = 0.00135573, Final residual = 9.63091e-07, No Iterations 158
time step continuity errors : sum local = 1.19957e-09, global = -1.26285e-10, cumulative = -1.87945e-10
smoothSolver:  Solving for omega, Initial residual = 0.0249115, Final residual = 2.54828e-08, No Iterations 2
smoothSolver:  Solving for k, Initial residual = 0.622858, Final residual = 2.21306e-08, No Iterations 3
ExecutionTime = 113.336 s  ClockTime = 114 s

Courant Number mean: 0.0270302 max: 4.98797
deltaT = 0.256422
Time = 2.43578s

PIMPLE: Iteration 1
smoothSolver:  Solving for Ux, Initial residual = 0.0544194, Final residual = 1.74677e-05, No Iterations 1
smoothSolver:  Solving for Uy, Initial residual = 0.0086722, Final residual = 2.43648e-05, No Iterations 1
smoothSolver:  Solving for Uz, Initial residual = 0.0265958, Final residual = 5.77634e-05, No Iterations 1
GAMG:  Solving for p, Initial residual = 0.0176071, Final residual = 0.000822029, No Iterations 3
GAMG:  Solving for p, Initial residual = 0.00455167, Final residual = 0.000209847, No Iterations 10
GAMG:  Solving for p, Initial residual = 0.00240467, Final residual = 0.000119406, No Iterations 10
time step continuity errors : sum local = 1.48478e-07, global = -1.3873e-08
GAMG:  Solving for p, Initial residual = 0.0122774, Final residual = 0.00058083, No Iterations 3
GAMG:  Solving for p, Initial residual = 0.00316931, Final residual = 0.000147311, No Iterations 12
GAMG:  Solving for p, Initial residual = 0.00200619, Final residual = 9.7192e-07, No Iterations 164
time step continuity errors : sum local = 1.2109e-09, global = -1.27482e-10
PIMPLE: Iteration 2
smoothSolver:  Solving for Ux, Initial residual = 0.0166408, Final residual = 4.31463e-08, No Iterations 2
smoothSolver:  Solving for Uy, Initial residual = 0.00246753, Final residual = 1.16062e-08, No Iterations 3
smoothSolver:  Solving for Uz, Initial residual = 0.00781837, Final residual = 1.18338e-08, No Iterations 3
GAMG:  Solving for p, Initial residual = 0.0148286, Final residual = 0.000735425, No Iterations 3
GAMG:  Solving for p, Initial residual = 0.00392329, Final residual = 0.000174229, No Iterations 10
GAMG:  Solving for p, Initial residual = 0.00181576, Final residual = 8.46262e-05, No Iterations 12
time step continuity errors : sum local = 1.0568e-07, global = -9.24679e-09
GAMG:  Solving for p, Initial residual = 0.0103403, Final residual = 0.000516772, No Iterations 3
GAMG:  Solving for p, Initial residual = 0.00271395, Final residual = 0.000134533, No Iterations 10
GAMG:  Solving for p, Initial residual = 0.0013597, Final residual = 9.53462e-07, No Iterations 152
time step continuity errors : sum local = 1.19216e-09, global = -1.25466e-10, cumulative = -3.13411e-10
smoothSolver:  Solving for omega, Initial residual = 0.0238416, Final residual = 2.46034e-08, No Iterations 2
smoothSolver:  Solving for k, Initial residual = 0.636844, Final residual = 2.23937e-08, No Iterations 3
ExecutionTime = 120.807 s  ClockTime = 121 s

Courant Number mean: 0.0274794 max: 4.95479
deltaT = 0.256422
Time = 2.692202s

PIMPLE: Iteration 1
smoothSolver:  Solving for Ux, Initial residual = 0.0521844, Final residual = 1.68404e-05, No Iterations 1
smoothSolver:  Solving for Uy, Initial residual = 0.00682125, Final residual = 2.17837e-05, No Iterations 1
smoothSolver:  Solving for Uz, Initial residual = 0.0226804, Final residual = 4.74253e-05, No Iterations 1
GAMG:  Solving for p, Initial residual = 0.0147959, Final residual = 0.000590909, No Iterations 3
GAMG:  Solving for p, Initial residual = 0.00350232, Final residual = 0.000159232, No Iterations 8
GAMG:  Solving for p, Initial residual = 0.00154693, Final residual = 7.18432e-05, No Iterations 16
time step continuity errors : sum local = 8.98326e-08, global = -8.75239e-09
GAMG:  Solving for p, Initial residual = 0.0103499, Final residual = 0.000414098, No Iterations 3
GAMG:  Solving for p, Initial residual = 0.00246365, Final residual = 0.000122708, No Iterations 8
GAMG:  Solving for p, Initial residual = 0.00113638, Final residual = 9.9574e-07, No Iterations 154
time step continuity errors : sum local = 1.24657e-09, global = -1.31259e-10
PIMPLE: Iteration 2
smoothSolver:  Solving for Ux, Initial residual = 0.0159874, Final residual = 4.13743e-08, No Iterations 2
smoothSolver:  Solving for Uy, Initial residual = 0.00199227, Final residual = 1.03711e-08, No Iterations 3
smoothSolver:  Solving for Uz, Initial residual = 0.00666063, Final residual = 9.63966e-09, No Iterations 3
GAMG:  Solving for p, Initial residual = 0.0127464, Final residual = 0.000499323, No Iterations 3
GAMG:  Solving for p, Initial residual = 0.00294504, Final residual = 0.000146089, No Iterations 6
GAMG:  Solving for p, Initial residual = 0.000995427, Final residual = 4.45547e-05, No Iterations 16
time step continuity errors : sum local = 5.58671e-08, global = -5.10614e-09
GAMG:  Solving for p, Initial residual = 0.00890325, Final residual = 0.000349457, No Iterations 3
GAMG:  Solving for p, Initial residual = 0.00205214, Final residual = 9.20742e-05, No Iterations 8
GAMG:  Solving for p, Initial residual = 0.000793091, Final residual = 9.6789e-07, No Iterations 130
time step continuity errors : sum local = 1.21483e-09, global = -1.27832e-10, cumulative = -4.41243e-10
smoothSolver:  Solving for omega, Initial residual = 0.0227702, Final residual = 2.36789e-08, No Iterations 2
smoothSolver:  Solving for k, Initial residual = 0.667454, Final residual = 2.32206e-08, No Iterations 3
ExecutionTime = 127.695 s  ClockTime = 128 s

Courant Number mean: 0.0279197 max: 4.92819
deltaT = 0.256422
Time = 2.948624s

PIMPLE: Iteration 1
smoothSolver:  Solving for Ux, Initial residual = 0.0501617, Final residual = 1.62517e-05, No Iterations 1
smoothSolver:  Solving for Uy, Initial residual = 0.00580159, Final residual = 2.09871e-05, No Iterations 1
smoothSolver:  Solving for Uz, Initial residual = 0.0193798, Final residual = 3.94381e-05, No Iterations 1
GAMG:  Solving for p, Initial residual = 0.0129907, Final residual = 0.000419953, No Iterations 3
GAMG:  Solving for p, Initial residual = 0.00266802, Final residual = 0.000123563, No Iterations 6
GAMG:  Solving for p, Initial residual = 0.0010118, Final residual = 5.02923e-05, No Iterations 10
time step continuity errors : sum local = 6.32212e-08, global = -7.37488e-09
GAMG:  Solving for p, Initial residual = 0.00905782, Final residual = 0.000294361, No Iterations 3
GAMG:  Solving for p, Initial residual = 0.00185747, Final residual = 9.24124e-05, No Iterations 6
GAMG:  Solving for p, Initial residual = 0.000730041, Final residual = 9.67429e-07, No Iterations 128
time step continuity errors : sum local = 1.21655e-09, global = -1.30682e-10
PIMPLE: Iteration 2
smoothSolver:  Solving for Ux, Initial residual = 0.0153809, Final residual = 3.93277e-08, No Iterations 2
smoothSolver:  Solving for Uy, Initial residual = 0.00183497, Final residual = 9.81683e-09, No Iterations 3
smoothSolver:  Solving for Uz, Initial residual = 0.00571737, Final residual = 6.70762e-09, No Iterations 3
GAMG:  Solving for p, Initial residual = 0.0109672, Final residual = 0.000339651, No Iterations 3
GAMG:  Solving for p, Initial residual = 0.00221374, Final residual = 9.56539e-05, No Iterations 5
GAMG:  Solving for p, Initial residual = 0.000710026, Final residual = 3.18958e-05, No Iterations 8
time step continuity errors : sum local = 4.01503e-08, global = 2.93967e-09
GAMG:  Solving for p, Initial residual = 0.00764633, Final residual = 0.000237445, No Iterations 3
GAMG:  Solving for p, Initial residual = 0.00152961, Final residual = 7.00741e-05, No Iterations 5
GAMG:  Solving for p, Initial residual = 0.000499595, Final residual = 9.90424e-07, No Iterations 80
time step continuity errors : sum local = 1.24666e-09, global = 1.60319e-10, cumulative = -2.80924e-10
smoothSolver:  Solving for omega, Initial residual = 0.0217183, Final residual = 2.26464e-08, No Iterations 2
smoothSolver:  Solving for k, Initial residual = 0.718498, Final residual = 2.44596e-08, No Iterations 3
ExecutionTime = 132.923 s  ClockTime = 133 s

Courant Number mean: 0.0283509 max: 4.92704
deltaT = 0.256422
Time = 3.205046s

PIMPLE: Iteration 1
smoothSolver:  Solving for Ux, Initial residual = 0.0482528, Final residual = 1.5667e-05, No Iterations 1
smoothSolver:  Solving for Uy, Initial residual = 0.0058748, Final residual = 2.04508e-05, No Iterations 1
smoothSolver:  Solving for Uz, Initial residual = 0.0168357, Final residual = 3.31574e-05, No Iterations 1
GAMG:  Solving for p, Initial residual = 0.0109695, Final residual = 0.000393333, No Iterations 3
GAMG:  Solving for p, Initial residual = 0.0021255, Final residual = 8.499e-05, No Iterations 9
GAMG:  Solving for p, Initial residual = 0.000818939, Final residual = 3.80647e-05, No Iterations 10
time step continuity errors : sum local = 4.79409e-08, global = 4.09932e-09
GAMG:  Solving for p, Initial residual = 0.00766697, Final residual = 0.000280241, No Iterations 3
GAMG:  Solving for p, Initial residual = 0.00147358, Final residual = 6.41621e-05, No Iterations 9
GAMG:  Solving for p, Initial residual = 0.000577325, Final residual = 9.59619e-07, No Iterations 114
time step continuity errors : sum local = 1.20826e-09, global = 1.27647e-10
PIMPLE: Iteration 2
smoothSolver:  Solving for Ux, Initial residual = 0.0147983, Final residual = 3.74698e-08, No Iterations 2
smoothSolver:  Solving for Uy, Initial residual = 0.00190625, Final residual = 9.266e-09, No Iterations 3
smoothSolver:  Solving for Uz, Initial residual = 0.00500416, Final residual = 5.08916e-09, No Iterations 3
GAMG:  Solving for p, Initial residual = 0.00939195, Final residual = 0.000348965, No Iterations 3
GAMG:  Solving for p, Initial residual = 0.00187115, Final residual = 7.88194e-05, No Iterations 11
GAMG:  Solving for p, Initial residual = 0.00110838, Final residual = 5.44658e-05, No Iterations 6
time step continuity errors : sum local = 6.85145e-08, global = 6.58601e-09
GAMG:  Solving for p, Initial residual = 0.00658571, Final residual = 0.000250638, No Iterations 3
GAMG:  Solving for p, Initial residual = 0.00130818, Final residual = 6.4171e-05, No Iterations 11
GAMG:  Solving for p, Initial residual = 0.000874702, Final residual = 9.88628e-07, No Iterations 132
time step continuity errors : sum local = 1.24285e-09, global = 1.30778e-10, cumulative = -1.50145e-10
smoothSolver:  Solving for omega, Initial residual = 0.0206956, Final residual = 2.16536e-08, No Iterations 2
smoothSolver:  Solving for k, Initial residual = 0.776679, Final residual = 2.59125e-08, No Iterations 3
ExecutionTime = 139.056 s  ClockTime = 140 s

Courant Number mean: 0.0287726 max: 4.94222
deltaT = 0.256422
Time = 3.461468s

PIMPLE: Iteration 1
smoothSolver:  Solving for Ux, Initial residual = 0.0464035, Final residual = 1.51035e-05, No Iterations 1
smoothSolver:  Solving for Uy, Initial residual = 0.00585402, Final residual = 1.94839e-05, No Iterations 1
smoothSolver:  Solving for Uz, Initial residual = 0.0148674, Final residual = 2.85462e-05, No Iterations 1
GAMG:  Solving for p, Initial residual = 0.00928225, Final residual = 0.000453314, No Iterations 3
GAMG:  Solving for p, Initial residual = 0.00193681, Final residual = 8.60584e-05, No Iterations 13
GAMG:  Solving for p, Initial residual = 0.00105679, Final residual = 4.92957e-05, No Iterations 14
time step continuity errors : sum local = 6.18791e-08, global = 6.36999e-09
GAMG:  Solving for p, Initial residual = 0.00651092, Final residual = 0.000216012, No Iterations 4
GAMG:  Solving for p, Initial residual = 0.00131783, Final residual = 6.05879e-05, No Iterations 14
GAMG:  Solving for p, Initial residual = 0.000823639, Final residual = 9.96629e-07, No Iterations 134
time step continuity errors : sum local = 1.2497e-09, global = 1.31486e-10
PIMPLE: Iteration 2
smoothSolver:  Solving for Ux, Initial residual = 0.0142292, Final residual = 3.56813e-08, No Iterations 2
smoothSolver:  Solving for Uy, Initial residual = 0.00188039, Final residual = 8.54317e-09, No Iterations 3
smoothSolver:  Solving for Uz, Initial residual = 0.00447428, Final residual = 4.55742e-09, No Iterations 3
GAMG:  Solving for p, Initial residual = 0.00803607, Final residual = 0.000272634, No Iterations 4
GAMG:  Solving for p, Initial residual = 0.00180945, Final residual = 8.87594e-05, No Iterations 14
GAMG:  Solving for p, Initial residual = 0.00155832, Final residual = 7.43138e-05, No Iterations 6
time step continuity errors : sum local = 9.3e-08, global = 9.1059e-09
GAMG:  Solving for p, Initial residual = 0.00565963, Final residual = 0.000209121, No Iterations 4
GAMG:  Solving for p, Initial residual = 0.00131833, Final residual = 6.16067e-05, No Iterations 18
GAMG:  Solving for p, Initial residual = 0.00135837, Final residual = 9.68413e-07, No Iterations 142
time step continuity errors : sum local = 1.21031e-09, global = 1.27329e-10, cumulative = -2.28169e-11
smoothSolver:  Solving for omega, Initial residual = 0.0197078, Final residual = 2.0629e-08, No Iterations 2
smoothSolver:  Solving for k, Initial residual = 0.774322, Final residual = 2.53507e-08, No Iterations 3
ExecutionTime = 146.165 s  ClockTime = 147 s

Courant Number mean: 0.0291844 max: 4.96411
deltaT = 0.256422
Time = 3.71789s

PIMPLE: Iteration 1
smoothSolver:  Solving for Ux, Initial residual = 0.0445997, Final residual = 1.45443e-05, No Iterations 1
smoothSolver:  Solving for Uy, Initial residual = 0.00564695, Final residual = 1.84406e-05, No Iterations 1
smoothSolver:  Solving for Uz, Initial residual = 0.0133383, Final residual = 2.50766e-05, No Iterations 1
GAMG:  Solving for p, Initial residual = 0.00807666, Final residual = 0.00034679, No Iterations 4
GAMG:  Solving for p, Initial residual = 0.00190763, Final residual = 8.99532e-05, No Iterations 18
GAMG:  Solving for p, Initial residual = 0.00150843, Final residual = 7.08152e-05, No Iterations 8
time step continuity errors : sum local = 8.8198e-08, global = 8.82689e-09
GAMG:  Solving for p, Initial residual = 0.00568931, Final residual = 0.000261457, No Iterations 4
GAMG:  Solving for p, Initial residual = 0.00138429, Final residual = 6.63712e-05, No Iterations 20
GAMG:  Solving for p, Initial residual = 0.00127044, Final residual = 9.74607e-07, No Iterations 142
time step continuity errors : sum local = 1.21218e-09, global = 1.27488e-10
PIMPLE: Iteration 2
smoothSolver:  Solving for Ux, Initial residual = 0.0136715, Final residual = 3.39647e-08, No Iterations 2
smoothSolver:  Solving for Uy, Initial residual = 0.00182401, Final residual = 8.01485e-09, No Iterations 3
smoothSolver:  Solving for Uz, Initial residual = 0.00405582, Final residual = 4.24356e-09, No Iterations 3
GAMG:  Solving for p, Initial residual = 0.00707135, Final residual = 0.000321592, No Iterations 4
GAMG:  Solving for p, Initial residual = 0.00199667, Final residual = 9.37761e-05, No Iterations 18
GAMG:  Solving for p, Initial residual = 0.00190185, Final residual = 8.19991e-05, No Iterations 6
time step continuity errors : sum local = 1.01721e-07, global = 1.05276e-08
GAMG:  Solving for p, Initial residual = 0.0050044, Final residual = 0.000248977, No Iterations 4
GAMG:  Solving for p, Initial residual = 0.00148198, Final residual = 7.0694e-05, No Iterations 20
GAMG:  Solving for p, Initial residual = 0.00158629, Final residual = 9.94793e-07, No Iterations 146
time step continuity errors : sum local = 1.23226e-09, global = 1.29618e-10, cumulative = 1.06802e-10
smoothSolver:  Solving for omega, Initial residual = 0.0187601, Final residual = 1.96182e-08, No Iterations 2
smoothSolver:  Solving for k, Initial residual = 0.772835, Final residual = 2.48996e-08, No Iterations 3
ExecutionTime = 153.669 s  ClockTime = 154 s

Courant Number mean: 0.0295852 max: 4.98692
deltaT = 0.256422
Time = 3.974312s

PIMPLE: Iteration 1
smoothSolver:  Solving for Ux, Initial residual = 0.0428443, Final residual = 1.40033e-05, No Iterations 1
smoothSolver:  Solving for Uy, Initial residual = 0.00548148, Final residual = 1.75118e-05, No Iterations 1
smoothSolver:  Solving for Uz, Initial residual = 0.012114, Final residual = 2.21856e-05, No Iterations 1
GAMG:  Solving for p, Initial residual = 0.00736419, Final residual = 0.000330929, No Iterations 6
GAMG:  Solving for p, Initial residual = 0.00236383, Final residual = 0.000112447, No Iterations 16
GAMG:  Solving for p, Initial residual = 0.00148015, Final residual = 7.20621e-05, No Iterations 14
time step continuity errors : sum local = 8.88446e-08, global = 8.99193e-09
GAMG:  Solving for p, Initial residual = 0.00518834, Final residual = 0.000249703, No Iterations 6
GAMG:  Solving for p, Initial residual = 0.00174184, Final residual = 8.13857e-05, No Iterations 18
GAMG:  Solving for p, Initial residual = 0.00123453, Final residual = 9.9287e-07, No Iterations 148
time step continuity errors : sum local = 1.22195e-09, global = 1.28492e-10
PIMPLE: Iteration 2
smoothSolver:  Solving for Ux, Initial residual = 0.0131295, Final residual = 3.23365e-08, No Iterations 2
smoothSolver:  Solving for Uy, Initial residual = 0.001788, Final residual = 7.45642e-09, No Iterations 3
smoothSolver:  Solving for Uz, Initial residual = 0.00371087, Final residual = 9.31294e-08, No Iterations 2
GAMG:  Solving for p, Initial residual = 0.00643811, Final residual = 0.000318868, No Iterations 6
GAMG:  Solving for p, Initial residual = 0.00259913, Final residual = 0.000128496, No Iterations 12
GAMG:  Solving for p, Initial residual = 0.00150466, Final residual = 7.18399e-05, No Iterations 18
time step continuity errors : sum local = 8.81992e-08, global = 9.00928e-09
GAMG:  Solving for p, Initial residual = 0.0045719, Final residual = 0.000194136, No Iterations 8
GAMG:  Solving for p, Initial residual = 0.0020833, Final residual = 0.000101888, No Iterations 10
GAMG:  Solving for p, Initial residual = 0.000983961, Final residual = 9.58737e-07, No Iterations 156
time step continuity errors : sum local = 1.17482e-09, global = 1.23576e-10, cumulative = 2.30378e-10
smoothSolver:  Solving for omega, Initial residual = 0.017859, Final residual = 1.86708e-08, No Iterations 2
smoothSolver:  Solving for k, Initial residual = 0.771973, Final residual = 2.46048e-08, No Iterations 3
ExecutionTime = 161.573 s  ClockTime = 162 s

Courant Number mean: 0.0299737 max: 5.00778
deltaT = 0.256422
Time = 4.230734s

PIMPLE: Iteration 1
smoothSolver:  Solving for Ux, Initial residual = 0.0411486, Final residual = 1.34291e-05, No Iterations 1
smoothSolver:  Solving for Uy, Initial residual = 0.0054363, Final residual = 1.67021e-05, No Iterations 1
smoothSolver:  Solving for Uz, Initial residual = 0.0110972, Final residual = 1.95995e-05, No Iterations 1
GAMG:  Solving for p, Initial residual = 0.006991, Final residual = 0.000295146, No Iterations 8
GAMG:  Solving for p, Initial residual = 0.00278734, Final residual = 0.00013157, No Iterations 14
GAMG:  Solving for p, Initial residual = 0.00150577, Final residual = 7.30761e-05, No Iterations 18
time step continuity errors : sum local = 8.92594e-08, global = 9.23075e-09
GAMG:  Solving for p, Initial residual = 0.00496687, Final residual = 0.00022325, No Iterations 8
GAMG:  Solving for p, Initial residual = 0.00205446, Final residual = 0.0001016, No Iterations 14
GAMG:  Solving for p, Initial residual = 0.00116255, Final residual = 9.98973e-07, No Iterations 154
time step continuity errors : sum local = 1.21799e-09, global = 1.2819e-10
PIMPLE: Iteration 2
smoothSolver:  Solving for Ux, Initial residual = 0.0126028, Final residual = 3.0788e-08, No Iterations 2
smoothSolver:  Solving for Uy, Initial residual = 0.0017826, Final residual = 6.95608e-09, No Iterations 3
smoothSolver:  Solving for Uz, Initial residual = 0.00341284, Final residual = 8.56277e-08, No Iterations 2
GAMG:  Solving for p, Initial residual = 0.00617791, Final residual = 0.000282572, No Iterations 8
GAMG:  Solving for p, Initial residual = 0.00307496, Final residual = 0.000145264, No Iterations 10
GAMG:  Solving for p, Initial residual = 0.00142547, Final residual = 7.06196e-05, No Iterations 22
time step continuity errors : sum local = 8.58633e-08, global = 8.80561e-09
GAMG:  Solving for p, Initial residual = 0.00445296, Final residual = 0.000213704, No Iterations 8
GAMG:  Solving for p, Initial residual = 0.00225015, Final residual = 0.00011187, No Iterations 10
GAMG:  Solving for p, Initial residual = 0.00107627, Final residual = 9.88972e-07, No Iterations 158
time step continuity errors : sum local = 1.20015e-09, global = 1.26354e-10, cumulative = 3.56732e-10
smoothSolver:  Solving for omega, Initial residual = 0.0170037, Final residual = 1.77661e-08, No Iterations 2
smoothSolver:  Solving for k, Initial residual = 0.77173, Final residual = 2.42314e-08, No Iterations 3
ExecutionTime = 169.715 s  ClockTime = 170 s

Courant Number mean: 0.0303497 max: 5.02667
deltaT = 0.192317
Time = 4.42305s

PIMPLE: Iteration 1
smoothSolver:  Solving for Ux, Initial residual = 0.0301203, Final residual = 6.41286e-06, No Iterations 1
smoothSolver:  Solving for Uy, Initial residual = 0.00415336, Final residual = 8.25888e-06, No Iterations 1
smoothSolver:  Solving for Uz, Initial residual = 0.00783554, Final residual = 8.8572e-06, No Iterations 1
GAMG:  Solving for p, Initial residual = 0.0373691, Final residual = 0.00149002, No Iterations 6
GAMG:  Solving for p, Initial residual = 0.0161586, Final residual = 0.000737191, No Iterations 6
GAMG:  Solving for p, Initial residual = 0.00540504, Final residual = 0.000263827, No Iterations 24
time step continuity errors : sum local = 2.067e-07, global = -2.11884e-08
GAMG:  Solving for p, Initial residual = 0.025299, Final residual = 0.00106704, No Iterations 6
GAMG:  Solving for p, Initial residual = 0.0109835, Final residual = 0.000546385, No Iterations 6
GAMG:  Solving for p, Initial residual = 0.00394208, Final residual = 9.58867e-07, No Iterations 206
time step continuity errors : sum local = 7.56862e-10, global = -7.89942e-11
PIMPLE: Iteration 2
smoothSolver:  Solving for Ux, Initial residual = 0.00939161, Final residual = 9.98349e-09, No Iterations 2
smoothSolver:  Solving for Uy, Initial residual = 0.00122407, Final residual = 5.38501e-08, No Iterations 2
smoothSolver:  Solving for Uz, Initial residual = 0.00258369, Final residual = 3.1042e-08, No Iterations 2
GAMG:  Solving for p, Initial residual = 0.0247631, Final residual = 0.00117663, No Iterations 4
GAMG:  Solving for p, Initial residual = 0.00883048, Final residual = 0.000379989, No Iterations 10
GAMG:  Solving for p, Initial residual = 0.00412801, Final residual = 0.000201108, No Iterations 16
time step continuity errors : sum local = 1.58479e-07, global = -1.60933e-08
GAMG:  Solving for p, Initial residual = 0.0171341, Final residual = 0.000841485, No Iterations 4
GAMG:  Solving for p, Initial residual = 0.00605321, Final residual = 0.000290962, No Iterations 10
GAMG:  Solving for p, Initial residual = 0.00316248, Final residual = 9.72163e-07, No Iterations 188
time step continuity errors : sum local = 7.69288e-10, global = -8.03018e-11, cumulative = 2.7643e-10
smoothSolver:  Solving for omega, Initial residual = 0.0124631, Final residual = 5.86726e-09, No Iterations 2
smoothSolver:  Solving for k, Initial residual = 0.693921, Final residual = 8.30676e-09, No Iterations 3
ExecutionTime = 178.793 s  ClockTime = 179 s

Courant Number mean: 0.0229994 max: 3.77946
deltaT = 0.192317
Time = 4.615367s

PIMPLE: Iteration 1
smoothSolver:  Solving for Ux, Initial residual = 0.0304506, Final residual = 5.92416e-06, No Iterations 1
smoothSolver:  Solving for Uy, Initial residual = 0.00358779, Final residual = 7.33519e-06, No Iterations 1
smoothSolver:  Solving for Uz, Initial residual = 0.00859986, Final residual = 9.29757e-06, No Iterations 1
GAMG:  Solving for p, Initial residual = 0.0191898, Final residual = 0.0008775, No Iterations 3
GAMG:  Solving for p, Initial residual = 0.00448851, Final residual = 0.000181791, No Iterations 10
GAMG:  Solving for p, Initial residual = 0.0020631, Final residual = 9.9265e-05, No Iterations 12
time step continuity errors : sum local = 7.37395e-08, global = 6.92372e-09
GAMG:  Solving for p, Initial residual = 0.0134842, Final residual = 0.000630229, No Iterations 3
GAMG:  Solving for p, Initial residual = 0.00318705, Final residual = 0.000140576, No Iterations 10
GAMG:  Solving for p, Initial residual = 0.00160783, Final residual = 9.54236e-07, No Iterations 158
time step continuity errors : sum local = 7.07768e-10, global = 7.37739e-11
PIMPLE: Iteration 2
smoothSolver:  Solving for Ux, Initial residual = 0.00928715, Final residual = 8.24375e-09, No Iterations 2
smoothSolver:  Solving for Uy, Initial residual = 0.00116053, Final residual = 4.42866e-08, No Iterations 2
smoothSolver:  Solving for Uz, Initial residual = 0.00271659, Final residual = 2.58339e-08, No Iterations 2
GAMG:  Solving for p, Initial residual = 0.0132926, Final residual = 0.0005494, No Iterations 3
GAMG:  Solving for p, Initial residual = 0.0024195, Final residual = 0.000118811, No Iterations 18
GAMG:  Solving for p, Initial residual = 0.00278038, Final residual = 0.000134454, No Iterations 4
time step continuity errors : sum local = 9.88567e-08, global = 9.13666e-09
GAMG:  Solving for p, Initial residual = 0.00941289, Final residual = 0.000396383, No Iterations 3
GAMG:  Solving for p, Initial residual = 0.00171527, Final residual = 8.41536e-05, No Iterations 22
GAMG:  Solving for p, Initial residual = 0.00245937, Final residual = 9.51647e-07, No Iterations 154
time step continuity errors : sum local = 6.98306e-10, global = 7.2795e-11, cumulative = 3.49225e-10
smoothSolver:  Solving for omega, Initial residual = 0.0118908, Final residual = 4.73102e-09, No Iterations 2
smoothSolver:  Solving for k, Initial residual = 0.690824, Final residual = 6.83127e-09, No Iterations 3
ExecutionTime = 186.389 s  ClockTime = 187 s

Courant Number mean: 0.0232213 max: 3.78758
deltaT = 0.192317
Time = 4.807683s

PIMPLE: Iteration 1
smoothSolver:  Solving for Ux, Initial residual = 0.029593, Final residual = 5.77125e-06, No Iterations 1
smoothSolver:  Solving for Uy, Initial residual = 0.00368829, Final residual = 7.13494e-06, No Iterations 1
smoothSolver:  Solving for Uz, Initial residual = 0.00864674, Final residual = 8.78286e-06, No Iterations 1
GAMG:  Solving for p, Initial residual = 0.013389, Final residual = 0.000416892, No Iterations 4
GAMG:  Solving for p, Initial residual = 0.00344919, Final residual = 0.000149987, No Iterations 10
GAMG:  Solving for p, Initial residual = 0.00137437, Final residual = 6.47238e-05, No Iterations 22
time step continuity errors : sum local = 4.68835e-08, global = 4.9175e-09
GAMG:  Solving for p, Initial residual = 0.00937418, Final residual = 0.000301875, No Iterations 4
GAMG:  Solving for p, Initial residual = 0.00237212, Final residual = 0.000113661, No Iterations 10
GAMG:  Solving for p, Initial residual = 0.00106399, Final residual = 9.85743e-07, No Iterations 154
time step continuity errors : sum local = 7.12818e-10, global = 7.43025e-11
PIMPLE: Iteration 2
smoothSolver:  Solving for Ux, Initial residual = 0.00902377, Final residual = 7.97987e-09, No Iterations 2
smoothSolver:  Solving for Uy, Initial residual = 0.00122521, Final residual = 4.24385e-08, No Iterations 2
smoothSolver:  Solving for Uz, Initial residual = 0.00260116, Final residual = 2.38081e-08, No Iterations 2
GAMG:  Solving for p, Initial residual = 0.0116876, Final residual = 0.000411746, No Iterations 4
GAMG:  Solving for p, Initial residual = 0.0034858, Final residual = 0.000161215, No Iterations 10
GAMG:  Solving for p, Initial residual = 0.00179504, Final residual = 8.77421e-05, No Iterations 16
time step continuity errors : sum local = 6.30121e-08, global = 6.39282e-09
GAMG:  Solving for p, Initial residual = 0.00817188, Final residual = 0.000303019, No Iterations 4
GAMG:  Solving for p, Initial residual = 0.00242315, Final residual = 0.000110578, No Iterations 12
GAMG:  Solving for p, Initial residual = 0.00149513, Final residual = 9.69325e-07, No Iterations 158
time step continuity errors : sum local = 6.9468e-10, global = 7.24097e-11, cumulative = 4.21635e-10
smoothSolver:  Solving for omega, Initial residual = 0.0114212, Final residual = 4.52066e-09, No Iterations 2
smoothSolver:  Solving for k, Initial residual = 0.685546, Final residual = 6.30537e-09, No Iterations 3
ExecutionTime = 194.135 s  ClockTime = 195 s

Courant Number mean: 0.0234305 max: 3.79597
deltaT = 0.192317
Time = 5s

PIMPLE: Iteration 1
smoothSolver:  Solving for Ux, Initial residual = 0.0287132, Final residual = 5.62113e-06, No Iterations 1
smoothSolver:  Solving for Uy, Initial residual = 0.00406937, Final residual = 6.97439e-06, No Iterations 1
smoothSolver:  Solving for Uz, Initial residual = 0.00791462, Final residual = 7.30964e-06, No Iterations 1
GAMG:  Solving for p, Initial residual = 0.0117082, Final residual = 0.000465869, No Iterations 4
GAMG:  Solving for p, Initial residual = 0.00394005, Final residual = 0.000188869, No Iterations 8
GAMG:  Solving for p, Initial residual = 0.00142106, Final residual = 7.0566e-05, No Iterations 22
time step continuity errors : sum local = 5.01851e-08, global = 5.28916e-09
GAMG:  Solving for p, Initial residual = 0.00823941, Final residual = 0.000331847, No Iterations 4
GAMG:  Solving for p, Initial residual = 0.00269404, Final residual = 0.000120159, No Iterations 10
GAMG:  Solving for p, Initial residual = 0.00118007, Final residual = 9.74978e-07, No Iterations 156
time step continuity errors : sum local = 6.91971e-10, global = 7.2125e-11
PIMPLE: Iteration 2
smoothSolver:  Solving for Ux, Initial residual = 0.008756, Final residual = 7.72189e-09, No Iterations 2
smoothSolver:  Solving for Uy, Initial residual = 0.00134588, Final residual = 4.09185e-08, No Iterations 2
smoothSolver:  Solving for Uz, Initial residual = 0.00242527, Final residual = 2.21006e-08, No Iterations 2
GAMG:  Solving for p, Initial residual = 0.00986219, Final residual = 0.000471816, No Iterations 4
GAMG:  Solving for p, Initial residual = 0.00383423, Final residual = 0.000170918, No Iterations 10
GAMG:  Solving for p, Initial residual = 0.00197108, Final residual = 9.24984e-05, No Iterations 16
time step continuity errors : sum local = 6.51657e-08, global = 6.53145e-09
GAMG:  Solving for p, Initial residual = 0.00700541, Final residual = 0.000340973, No Iterations 4
GAMG:  Solving for p, Initial residual = 0.00265118, Final residual = 0.000116889, No Iterations 12
GAMG:  Solving for p, Initial residual = 0.00165305, Final residual = 9.87172e-07, No Iterations 160
time step continuity errors : sum local = 6.93967e-10, global = 7.22772e-11, cumulative = 4.93912e-10
smoothSolver:  Solving for omega, Initial residual = 0.0110066, Final residual = 4.31999e-09, No Iterations 2
smoothSolver:  Solving for k, Initial residual = 0.626912, Final residual = 5.73929e-09, No Iterations 3
ExecutionTime = 203.155 s  ClockTime = 204 s

Courant Number mean: 0.0236314 max: 3.80495
deltaT = 0.227273
Time = 5.227273s

PIMPLE: Iteration 1
smoothSolver:  Solving for Ux, Initial residual = 0.0326511, Final residual = 8.28658e-06, No Iterations 1
smoothSolver:  Solving for Uy, Initial residual = 0.00520918, Final residual = 1.01104e-05, No Iterations 1
smoothSolver:  Solving for Uz, Initial residual = 0.00865073, Final residual = 9.60931e-06, No Iterations 1
GAMG:  Solving for p, Initial residual = 0.0245296, Final residual = 0.00113542, No Iterations 8
GAMG:  Solving for p, Initial residual = 0.0149671, Final residual = 0.000653811, No Iterations 6
GAMG:  Solving for p, Initial residual = 0.00507639, Final residual = 0.000239147, No Iterations 30
time step continuity errors : sum local = 2.15421e-07, global = 2.22031e-08
GAMG:  Solving for p, Initial residual = 0.01741, Final residual = 0.00084466, No Iterations 8
GAMG:  Solving for p, Initial residual = 0.0104856, Final residual = 0.000500327, No Iterations 6
GAMG:  Solving for p, Initial residual = 0.00375437, Final residual = 9.86124e-07, No Iterations 208
time step continuity errors : sum local = 8.80687e-10, global = 9.20915e-11
PIMPLE: Iteration 2
smoothSolver:  Solving for Ux, Initial residual = 0.00985887, Final residual = 1.41231e-08, No Iterations 2
smoothSolver:  Solving for Uy, Initial residual = 0.0017544, Final residual = 7.08981e-08, No Iterations 2
smoothSolver:  Solving for Uz, Initial residual = 0.00266786, Final residual = 3.81795e-08, No Iterations 2
GAMG:  Solving for p, Initial residual = 0.0181184, Final residual = 0.000890675, No Iterations 8
GAMG:  Solving for p, Initial residual = 0.0113566, Final residual = 0.0005282, No Iterations 6
GAMG:  Solving for p, Initial residual = 0.00411207, Final residual = 0.000194873, No Iterations 30
time step continuity errors : sum local = 1.73354e-07, global = 1.77966e-08
GAMG:  Solving for p, Initial residual = 0.0131702, Final residual = 0.000535309, No Iterations 10
GAMG:  Solving for p, Initial residual = 0.00841138, Final residual = 0.000370455, No Iterations 6
GAMG:  Solving for p, Initial residual = 0.00310843, Final residual = 9.73947e-07, No Iterations 200
time step continuity errors : sum local = 8.5925e-10, global = 8.99434e-11, cumulative = 5.83856e-10
smoothSolver:  Solving for omega, Initial residual = 0.0123728, Final residual = 7.71197e-09, No Iterations 2
smoothSolver:  Solving for k, Initial residual = 0.560641, Final residual = 9.46635e-09, No Iterations 3
ExecutionTime = 212.889 s  ClockTime = 214 s

Courant Number mean: 0.0281762 max: 4.51041
deltaT = 0.251196
Time = 5.478469s

PIMPLE: Iteration 1
smoothSolver:  Solving for Ux, Initial residual = 0.0337988, Final residual = 1.04711e-05, No Iterations 1
smoothSolver:  Solving for Uy, Initial residual = 0.00639532, Final residual = 1.30479e-05, No Iterations 1
smoothSolver:  Solving for Uz, Initial residual = 0.00902514, Final residual = 1.32813e-05, No Iterations 1
GAMG:  Solving for p, Initial residual = 0.0251115, Final residual = 0.00100863, No Iterations 8
GAMG:  Solving for p, Initial residual = 0.012566, Final residual = 0.00057992, No Iterations 6
GAMG:  Solving for p, Initial residual = 0.00441682, Final residual = 0.000209762, No Iterations 30
time step continuity errors : sum local = 2.22579e-07, global = 2.29758e-08
GAMG:  Solving for p, Initial residual = 0.0181789, Final residual = 0.000754261, No Iterations 8
GAMG:  Solving for p, Initial residual = 0.00877191, Final residual = 0.000400862, No Iterations 8
GAMG:  Solving for p, Initial residual = 0.00351812, Final residual = 9.68254e-07, No Iterations 202
time step continuity errors : sum local = 1.01875e-09, global = 1.07035e-10
PIMPLE: Iteration 2
smoothSolver:  Solving for Ux, Initial residual = 0.0102462, Final residual = 2.15099e-08, No Iterations 2
smoothSolver:  Solving for Uy, Initial residual = 0.00207237, Final residual = 4.68537e-09, No Iterations 3
smoothSolver:  Solving for Uz, Initial residual = 0.00288296, Final residual = 6.10775e-08, No Iterations 2
GAMG:  Solving for p, Initial residual = 0.0183145, Final residual = 0.000787194, No Iterations 8
GAMG:  Solving for p, Initial residual = 0.00909116, Final residual = 0.000427562, No Iterations 8
GAMG:  Solving for p, Initial residual = 0.00383977, Final residual = 0.000186798, No Iterations 26
time step continuity errors : sum local = 1.95531e-07, global = 2.00332e-08
GAMG:  Solving for p, Initial residual = 0.0132056, Final residual = 0.000595884, No Iterations 8
GAMG:  Solving for p, Initial residual = 0.00644922, Final residual = 0.000306002, No Iterations 10
GAMG:  Solving for p, Initial residual = 0.00313795, Final residual = 9.92214e-07, No Iterations 194
time step continuity errors : sum local = 1.03186e-09, global = 1.08347e-10, cumulative = 6.92203e-10
smoothSolver:  Solving for omega, Initial residual = 0.0130686, Final residual = 1.17529e-08, No Iterations 2
smoothSolver:  Solving for k, Initial residual = 0.487079, Final residual = 1.20701e-08, No Iterations 3
ExecutionTime = 222.471 s  ClockTime = 224 s

Courant Number mean: 0.0314269 max: 5.00486
deltaT = 0.237975
Time = 5.716444s

PIMPLE: Iteration 1
smoothSolver:  Solving for Ux, Initial residual = 0.0302749, Final residual = 8.94174e-06, No Iterations 1
smoothSolver:  Solving for Uy, Initial residual = 0.00618462, Final residual = 1.15412e-05, No Iterations 1
smoothSolver:  Solving for Uz, Initial residual = 0.00865449, Final residual = 1.40363e-05, No Iterations 1
GAMG:  Solving for p, Initial residual = 0.0128236, Final residual = 0.000535197, No Iterations 4
GAMG:  Solving for p, Initial residual = 0.00427597, Final residual = 0.000207369, No Iterations 14
GAMG:  Solving for p, Initial residual = 0.00371152, Final residual = 0.000182638, No Iterations 6
time step continuity errors : sum local = 1.78675e-07, global = 1.74282e-08
GAMG:  Solving for p, Initial residual = 0.00907421, Final residual = 0.000414233, No Iterations 4
GAMG:  Solving for p, Initial residual = 0.00308544, Final residual = 0.000151565, No Iterations 18
GAMG:  Solving for p, Initial residual = 0.00338242, Final residual = 9.5711e-07, No Iterations 174
time step continuity errors : sum local = 9.33168e-10, global = 9.78836e-11
PIMPLE: Iteration 2
smoothSolver:  Solving for Ux, Initial residual = 0.0092479, Final residual = 1.75206e-08, No Iterations 2
smoothSolver:  Solving for Uy, Initial residual = 0.001894, Final residual = 8.68443e-08, No Iterations 2
smoothSolver:  Solving for Uz, Initial residual = 0.00264527, Final residual = 5.32659e-08, No Iterations 2
GAMG:  Solving for p, Initial residual = 0.0107893, Final residual = 0.000508918, No Iterations 4
GAMG:  Solving for p, Initial residual = 0.00439615, Final residual = 0.00020349, No Iterations 14
GAMG:  Solving for p, Initial residual = 0.00364586, Final residual = 0.000177576, No Iterations 6
time step continuity errors : sum local = 1.72725e-07, global = 1.73679e-08
GAMG:  Solving for p, Initial residual = 0.00775031, Final residual = 0.000371225, No Iterations 6
GAMG:  Solving for p, Initial residual = 0.00359139, Final residual = 0.00017441, No Iterations 12
GAMG:  Solving for p, Initial residual = 0.00214875, Final residual = 9.88952e-07, No Iterations 176
time step continuity errors : sum local = 9.58903e-10, global = 1.00569e-10, cumulative = 7.92772e-10
smoothSolver:  Solving for omega, Initial residual = 0.0119397, Final residual = 9.73255e-09, No Iterations 2
smoothSolver:  Solving for k, Initial residual = 0.391207, Final residual = 8.57802e-09, No Iterations 3
ExecutionTime = 230.745 s  ClockTime = 232 s

Courant Number mean: 0.0300327 max: 4.76099
deltaT = 0.237975
Time = 5.95442s

PIMPLE: Iteration 1
smoothSolver:  Solving for Ux, Initial residual = 0.0291148, Final residual = 8.45982e-06, No Iterations 1
smoothSolver:  Solving for Uy, Initial residual = 0.00556573, Final residual = 1.09011e-05, No Iterations 1
smoothSolver:  Solving for Uz, Initial residual = 0.00792779, Final residual = 1.26206e-05, No Iterations 1
GAMG:  Solving for p, Initial residual = 0.0114166, Final residual = 0.000518076, No Iterations 7
GAMG:  Solving for p, Initial residual = 0.00777515, Final residual = 0.000375633, No Iterations 6
GAMG:  Solving for p, Initial residual = 0.00243791, Final residual = 0.000116809, No Iterations 32
time step continuity errors : sum local = 1.1111e-07, global = 1.14959e-08
GAMG:  Solving for p, Initial residual = 0.0087179, Final residual = 0.000379642, No Iterations 7
GAMG:  Solving for p, Initial residual = 0.00595325, Final residual = 0.000279893, No Iterations 6
GAMG:  Solving for p, Initial residual = 0.00176455, Final residual = 9.69321e-07, No Iterations 186
time step continuity errors : sum local = 9.17774e-10, global = 9.61836e-11
PIMPLE: Iteration 2
smoothSolver:  Solving for Ux, Initial residual = 0.00885176, Final residual = 1.61346e-08, No Iterations 2
smoothSolver:  Solving for Uy, Initial residual = 0.00172956, Final residual = 8.02478e-08, No Iterations 2
smoothSolver:  Solving for Uz, Initial residual = 0.0025494, Final residual = 4.85544e-08, No Iterations 2
GAMG:  Solving for p, Initial residual = 0.00968153, Final residual = 0.000482041, No Iterations 7
GAMG:  Solving for p, Initial residual = 0.00703705, Final residual = 0.000330492, No Iterations 6
GAMG:  Solving for p, Initial residual = 0.00224831, Final residual = 0.000108127, No Iterations 30
time step continuity errors : sum local = 1.01963e-07, global = 1.04882e-08
GAMG:  Solving for p, Initial residual = 0.00748247, Final residual = 0.00034219, No Iterations 7
GAMG:  Solving for p, Initial residual = 0.00538486, Final residual = 0.000245675, No Iterations 6
GAMG:  Solving for p, Initial residual = 0.00162083, Final residual = 9.53477e-07, No Iterations 182
time step continuity errors : sum local = 8.95478e-10, global = 9.379e-11, cumulative = 8.86562e-10
smoothSolver:  Solving for omega, Initial residual = 0.0114216, Final residual = 8.97953e-09, No Iterations 2
smoothSolver:  Solving for k, Initial residual = 0.330542, Final residual = 6.93571e-09, No Iterations 3
ExecutionTime = 239.743 s  ClockTime = 241 s

Courant Number mean: 0.0302842 max: 4.7808
deltaT = 0.237975
Time = 6.192395s

PIMPLE: Iteration 1
smoothSolver:  Solving for Ux, Initial residual = 0.0277986, Final residual = 8.03951e-06, No Iterations 1
smoothSolver:  Solving for Uy, Initial residual = 0.0051015, Final residual = 1.03895e-05, No Iterations 1
smoothSolver:  Solving for Uz, Initial residual = 0.00793051, Final residual = 1.14967e-05, No Iterations 1
GAMG:  Solving for p, Initial residual = 0.00811307, Final residual = 0.000378992, No Iterations 10
GAMG:  Solving for p, Initial residual = 0.00697414, Final residual = 0.0002979, No Iterations 6
GAMG:  Solving for p, Initial residual = 0.00216002, Final residual = 0.000103327, No Iterations 32
time step continuity errors : sum local = 9.59859e-08, global = 9.96822e-09
GAMG:  Solving for p, Initial residual = 0.00649778, Final residual = 0.000323813, No Iterations 8
GAMG:  Solving for p, Initial residual = 0.00490189, Final residual = 0.000239419, No Iterations 8
GAMG:  Solving for p, Initial residual = 0.00179409, Final residual = 9.9198e-07, No Iterations 182
time step continuity errors : sum local = 9.18373e-10, global = 9.61571e-11
PIMPLE: Iteration 2
smoothSolver:  Solving for Ux, Initial residual = 0.00844443, Final residual = 1.52607e-08, No Iterations 2
smoothSolver:  Solving for Uy, Initial residual = 0.00162604, Final residual = 7.6296e-08, No Iterations 2
smoothSolver:  Solving for Uz, Initial residual = 0.00257563, Final residual = 4.59195e-08, No Iterations 2
GAMG:  Solving for p, Initial residual = 0.00797529, Final residual = 0.000375698, No Iterations 8
GAMG:  Solving for p, Initial residual = 0.00541049, Final residual = 0.000252864, No Iterations 10
GAMG:  Solving for p, Initial residual = 0.00236966, Final residual = 0.000113859, No Iterations 24
time step continuity errors : sum local = 1.04904e-07, global = 1.07874e-08
GAMG:  Solving for p, Initial residual = 0.00617022, Final residual = 0.000289845, No Iterations 8
GAMG:  Solving for p, Initial residual = 0.00404971, Final residual = 0.000197003, No Iterations 10
GAMG:  Solving for p, Initial residual = 0.00180793, Final residual = 9.68534e-07, No Iterations 178
time step continuity errors : sum local = 8.89533e-10, global = 9.31437e-11, cumulative = 9.79706e-10
smoothSolver:  Solving for omega, Initial residual = 0.0109304, Final residual = 8.5133e-09, No Iterations 2
smoothSolver:  Solving for k, Initial residual = 0.284026, Final residual = 5.90496e-09, No Iterations 3
ExecutionTime = 248.78 s  ClockTime = 250 s

Courant Number mean: 0.0305252 max: 4.80104
deltaT = 0.237975
Time = 6.43037s

PIMPLE: Iteration 1
smoothSolver:  Solving for Ux, Initial residual = 0.0265621, Final residual = 7.66853e-06, No Iterations 1
smoothSolver:  Solving for Uy, Initial residual = 0.00494554, Final residual = 9.96968e-06, No Iterations 1
smoothSolver:  Solving for Uz, Initial residual = 0.00803711, Final residual = 1.09651e-05, No Iterations 1
GAMG:  Solving for p, Initial residual = 0.0102494, Final residual = 0.000467695, No Iterations 8
GAMG:  Solving for p, Initial residual = 0.00463624, Final residual = 0.000231775, No Iterations 14
GAMG:  Solving for p, Initial residual = 0.0027484, Final residual = 0.000132575, No Iterations 18
time step continuity errors : sum local = 1.20399e-07, global = 1.2322e-08
GAMG:  Solving for p, Initial residual = 0.00758132, Final residual = 0.000358363, No Iterations 8
GAMG:  Solving for p, Initial residual = 0.00357931, Final residual = 0.000167403, No Iterations 16
GAMG:  Solving for p, Initial residual = 0.00227596, Final residual = 9.89473e-07, No Iterations 174
time step continuity errors : sum local = 8.95249e-10, global = 9.37216e-11
PIMPLE: Iteration 2
smoothSolver:  Solving for Ux, Initial residual = 0.00807021, Final residual = 1.44879e-08, No Iterations 2
smoothSolver:  Solving for Uy, Initial residual = 0.00160361, Final residual = 7.29865e-08, No Iterations 2
smoothSolver:  Solving for Uz, Initial residual = 0.00261485, Final residual = 4.46395e-08, No Iterations 2
GAMG:  Solving for p, Initial residual = 0.00954828, Final residual = 0.000395542, No Iterations 8
GAMG:  Solving for p, Initial residual = 0.00426798, Final residual = 0.00020396, No Iterations 12
GAMG:  Solving for p, Initial residual = 0.00223696, Final residual = 0.000108653, No Iterations 20
time step continuity errors : sum local = 9.78875e-08, global = 1.00204e-08
GAMG:  Solving for p, Initial residual = 0.00711132, Final residual = 0.000301469, No Iterations 8
GAMG:  Solving for p, Initial residual = 0.00322943, Final residual = 0.000158079, No Iterations 12
GAMG:  Solving for p, Initial residual = 0.00170739, Final residual = 9.65831e-07, No Iterations 172
[...]
time step continuity errors : sum local = 4.74418e-09, global = 5.29262e-10
GAMG:  Solving for p, Initial residual = 0.00253533, Final residual = 0.000107836, No Iterations 6
GAMG:  Solving for p, Initial residual = 0.00152059, Final residual = 7.51564e-05, No Iterations 5
GAMG:  Solving for p, Initial residual = 0.000512083, Final residual = 9.55147e-07, No Iterations 129
time step continuity errors : sum local = 1.28813e-10, global = 1.37876e-11
PIMPLE: Iteration 2
smoothSolver:  Solving for Ux, Initial residual = 7.31429e-05, Final residual = 2.64804e-09, No Iterations 2
smoothSolver:  Solving for Uy, Initial residual = 0.000482894, Final residual = 2.60949e-08, No Iterations 2
smoothSolver:  Solving for Uz, Initial residual = 0.00140171, Final residual = 5.45195e-08, No Iterations 2
GAMG:  Solving for p, Initial residual = 0.00351375, Final residual = 0.000162224, No Iterations 5
GAMG:  Solving for p, Initial residual = 0.00178261, Final residual = 8.85674e-05, No Iterations 5
GAMG:  Solving for p, Initial residual = 0.00057717, Final residual = 2.8103e-05, No Iterations 23
time step continuity errors : sum local = 3.78352e-09, global = -4.73108e-10
GAMG:  Solving for p, Initial residual = 0.00249386, Final residual = 0.000116651, No Iterations 5
GAMG:  Solving for p, Initial residual = 0.00128254, Final residual = 6.40323e-05, No Iterations 5
GAMG:  Solving for p, Initial residual = 0.000418097, Final residual = 9.56468e-07, No Iterations 130
time step continuity errors : sum local = 1.28764e-10, global = -1.38809e-11, cumulative = -2.70531e-10
smoothSolver:  Solving for omega, Initial residual = 0.000756171, Final residual = 3.28884e-09, No Iterations 2
smoothSolver:  Solving for k, Initial residual = 0.000348549, Final residual = 1.18324e-08, No Iterations 2
bounding k, min: -0.00174548 max: 4.62707 average: 0.75214
ExecutionTime = 3356 s  ClockTime = 3388 s

Courant Number mean: 0.0784547 max: 4.74458
deltaT = 0.555556
Time = 196.666667s

PIMPLE: Iteration 1
smoothSolver:  Solving for Ux, Initial residual = 0.000233257, Final residual = 4.44816e-07, No Iterations 1
smoothSolver:  Solving for Uy, Initial residual = 0.00153629, Final residual = 3.01287e-06, No Iterations 1
smoothSolver:  Solving for Uz, Initial residual = 0.00450212, Final residual = 6.89724e-06, No Iterations 1
GAMG:  Solving for p, Initial residual = 0.00352778, Final residual = 0.000161786, No Iterations 6
GAMG:  Solving for p, Initial residual = 0.00221208, Final residual = 0.000101753, No Iterations 5
GAMG:  Solving for p, Initial residual = 0.000738907, Final residual = 3.50083e-05, No Iterations 20
time step continuity errors : sum local = 4.71553e-09, global = 5.25529e-10
GAMG:  Solving for p, Initial residual = 0.00250523, Final residual = 0.000107376, No Iterations 6
GAMG:  Solving for p, Initial residual = 0.00151157, Final residual = 7.49158e-05, No Iterations 5
GAMG:  Solving for p, Initial residual = 0.000510307, Final residual = 9.50344e-07, No Iterations 129
time step continuity errors : sum local = 1.28022e-10, global = 1.37028e-11
PIMPLE: Iteration 2
smoothSolver:  Solving for Ux, Initial residual = 7.29532e-05, Final residual = 2.63203e-09, No Iterations 2
smoothSolver:  Solving for Uy, Initial residual = 0.000482556, Final residual = 2.5907e-08, No Iterations 2
smoothSolver:  Solving for Uz, Initial residual = 0.00139738, Final residual = 5.42314e-08, No Iterations 2
GAMG:  Solving for p, Initial residual = 0.00347714, Final residual = 0.000161795, No Iterations 5
GAMG:  Solving for p, Initial residual = 0.00177972, Final residual = 8.82364e-05, No Iterations 5
GAMG:  Solving for p, Initial residual = 0.000578152, Final residual = 2.79165e-05, No Iterations 23
time step continuity errors : sum local = 3.75411e-09, global = -4.68564e-10
GAMG:  Solving for p, Initial residual = 0.00246826, Final residual = 0.000116312, No Iterations 5
GAMG:  Solving for p, Initial residual = 0.00127834, Final residual = 6.37881e-05, No Iterations 5
GAMG:  Solving for p, Initial residual = 0.000417398, Final residual = 9.56872e-07, No Iterations 130
time step continuity errors : sum local = 1.2867e-10, global = -1.38698e-11, cumulative = -2.84401e-10
smoothSolver:  Solving for omega, Initial residual = 0.000756469, Final residual = 3.29235e-09, No Iterations 2
smoothSolver:  Solving for k, Initial residual = 0.000347582, Final residual = 1.17784e-08, No Iterations 2
ExecutionTime = 3362.62 s  ClockTime = 3395 s

Courant Number mean: 0.078448 max: 4.74096
deltaT = 0.555556
Time = 197.222222s

PIMPLE: Iteration 1
smoothSolver:  Solving for Ux, Initial residual = 0.000232663, Final residual = 4.42745e-07, No Iterations 1
smoothSolver:  Solving for Uy, Initial residual = 0.00153506, Final residual = 2.99599e-06, No Iterations 1
smoothSolver:  Solving for Uz, Initial residual = 0.00448781, Final residual = 6.86841e-06, No Iterations 1
GAMG:  Solving for p, Initial residual = 0.00349835, Final residual = 0.000161456, No Iterations 6
GAMG:  Solving for p, Initial residual = 0.00223404, Final residual = 0.000101655, No Iterations 5
GAMG:  Solving for p, Initial residual = 0.000778934, Final residual = 3.71872e-05, No Iterations 16
time step continuity errors : sum local = 5.00379e-09, global = 5.1925e-10
GAMG:  Solving for p, Initial residual = 0.00246984, Final residual = 0.000106736, No Iterations 6
GAMG:  Solving for p, Initial residual = 0.00150146, Final residual = 7.46903e-05, No Iterations 5
GAMG:  Solving for p, Initial residual = 0.000508765, Final residual = 9.44594e-07, No Iterations 129
time step continuity errors : sum local = 1.27106e-10, global = 1.36044e-11
PIMPLE: Iteration 2
smoothSolver:  Solving for Ux, Initial residual = 7.27632e-05, Final residual = 2.61639e-09, No Iterations 2
smoothSolver:  Solving for Uy, Initial residual = 0.000482015, Final residual = 2.57222e-08, No Iterations 2
smoothSolver:  Solving for Uz, Initial residual = 0.00139295, Final residual = 5.39398e-08, No Iterations 2
GAMG:  Solving for p, Initial residual = 0.00344097, Final residual = 0.00015996, No Iterations 5
GAMG:  Solving for p, Initial residual = 0.00176148, Final residual = 8.7824e-05, No Iterations 5
GAMG:  Solving for p, Initial residual = 0.000573313, Final residual = 2.80679e-05, No Iterations 23
time step continuity errors : sum local = 3.77016e-09, global = -4.70942e-10
GAMG:  Solving for p, Initial residual = 0.00244342, Final residual = 0.000115689, No Iterations 5
GAMG:  Solving for p, Initial residual = 0.00127039, Final residual = 6.34958e-05, No Iterations 5
GAMG:  Solving for p, Initial residual = 0.000415961, Final residual = 9.54531e-07, No Iterations 130
time step continuity errors : sum local = 1.28209e-10, global = -1.38176e-11, cumulative = -2.98218e-10
smoothSolver:  Solving for omega, Initial residual = 0.000756792, Final residual = 3.29531e-09, No Iterations 2
smoothSolver:  Solving for k, Initial residual = 0.000346629, Final residual = 1.17217e-08, No Iterations 2
bounding k, min: -0.00673603 max: 4.60989 average: 0.751217
ExecutionTime = 3369.15 s  ClockTime = 3401 s

Courant Number mean: 0.0784413 max: 4.7374
deltaT = 0.555556
Time = 197.777778s

PIMPLE: Iteration 1
smoothSolver:  Solving for Ux, Initial residual = 0.00023207, Final residual = 4.40722e-07, No Iterations 1
smoothSolver:  Solving for Uy, Initial residual = 0.00153337, Final residual = 2.9789e-06, No Iterations 1
smoothSolver:  Solving for Uz, Initial residual = 0.00447231, Final residual = 6.83962e-06, No Iterations 1
GAMG:  Solving for p, Initial residual = 0.0034479, Final residual = 0.000166671, No Iterations 6
GAMG:  Solving for p, Initial residual = 0.00222127, Final residual = 0.000101018, No Iterations 5
GAMG:  Solving for p, Initial residual = 0.00076338, Final residual = 3.76263e-05, No Iterations 16
time step continuity errors : sum local = 5.05727e-09, global = 5.26625e-10
GAMG:  Solving for p, Initial residual = 0.00243502, Final residual = 0.000107163, No Iterations 6
GAMG:  Solving for p, Initial residual = 0.00148438, Final residual = 6.31658e-05, No Iterations 6
GAMG:  Solving for p, Initial residual = 0.000510171, Final residual = 9.62805e-07, No Iterations 128
time step continuity errors : sum local = 1.29416e-10, global = 1.38514e-11
PIMPLE: Iteration 2
smoothSolver:  Solving for Ux, Initial residual = 7.25728e-05, Final residual = 2.60139e-09, No Iterations 2
smoothSolver:  Solving for Uy, Initial residual = 0.000481378, Final residual = 2.55494e-08, No Iterations 2
smoothSolver:  Solving for Uz, Initial residual = 0.00138872, Final residual = 5.36568e-08, No Iterations 2
GAMG:  Solving for p, Initial residual = 0.0033918, Final residual = 0.000159189, No Iterations 5
GAMG:  Solving for p, Initial residual = 0.00174646, Final residual = 7.82631e-05, No Iterations 6
GAMG:  Solving for p, Initial residual = 0.000586334, Final residual = 2.85873e-05, No Iterations 22
time step continuity errors : sum local = 3.83537e-09, global = -4.84988e-10
GAMG:  Solving for p, Initial residual = 0.00240467, Final residual = 0.000115515, No Iterations 5
GAMG:  Solving for p, Initial residual = 0.00126183, Final residual = 6.00513e-05, No Iterations 6
GAMG:  Solving for p, Initial residual = 0.000432606, Final residual = 9.59839e-07, No Iterations 129
time step continuity errors : sum local = 1.28776e-10, global = -1.3878e-11, cumulative = -3.12096e-10
smoothSolver:  Solving for omega, Initial residual = 0.000757133, Final residual = 3.29893e-09, No Iterations 2
smoothSolver:  Solving for k, Initial residual = 0.000345663, Final residual = 1.16704e-08, No Iterations 2
ExecutionTime = 3375.69 s  ClockTime = 3408 s

Courant Number mean: 0.0784346 max: 4.7339
deltaT = 0.555556
Time = 198.333333s

PIMPLE: Iteration 1
smoothSolver:  Solving for Ux, Initial residual = 0.000231476, Final residual = 4.38755e-07, No Iterations 1
smoothSolver:  Solving for Uy, Initial residual = 0.00153142, Final residual = 2.96347e-06, No Iterations 1
smoothSolver:  Solving for Uz, Initial residual = 0.00445783, Final residual = 6.80972e-06, No Iterations 1
GAMG:  Solving for p, Initial residual = 0.00341023, Final residual = 0.000160842, No Iterations 6
GAMG:  Solving for p, Initial residual = 0.00217268, Final residual = 0.000100722, No Iterations 5
GAMG:  Solving for p, Initial residual = 0.000727393, Final residual = 3.44228e-05, No Iterations 20
time step continuity errors : sum local = 4.62101e-09, global = 5.13274e-10
GAMG:  Solving for p, Initial residual = 0.00242085, Final residual = 0.000106943, No Iterations 6
GAMG:  Solving for p, Initial residual = 0.00147795, Final residual = 6.27736e-05, No Iterations 6
GAMG:  Solving for p, Initial residual = 0.000507341, Final residual = 9.51775e-07, No Iterations 128
time step continuity errors : sum local = 1.27785e-10, global = 1.36767e-11
PIMPLE: Iteration 2
smoothSolver:  Solving for Ux, Initial residual = 7.23825e-05, Final residual = 2.58642e-09, No Iterations 2
smoothSolver:  Solving for Uy, Initial residual = 0.000480455, Final residual = 2.53738e-08, No Iterations 2
smoothSolver:  Solving for Uz, Initial residual = 0.00138392, Final residual = 5.33771e-08, No Iterations 2
GAMG:  Solving for p, Initial residual = 0.00336744, Final residual = 0.000158343, No Iterations 5
GAMG:  Solving for p, Initial residual = 0.00174313, Final residual = 7.81943e-05, No Iterations 6
GAMG:  Solving for p, Initial residual = 0.000587396, Final residual = 2.8555e-05, No Iterations 22
time step continuity errors : sum local = 3.8266e-09, global = -4.83181e-10
GAMG:  Solving for p, Initial residual = 0.00238626, Final residual = 0.000115112, No Iterations 5
GAMG:  Solving for p, Initial residual = 0.0012589, Final residual = 6.01276e-05, No Iterations 6
GAMG:  Solving for p, Initial residual = 0.000433771, Final residual = 9.59033e-07, No Iterations 129
time step continuity errors : sum local = 1.28519e-10, global = -1.38484e-11, cumulative = -3.25945e-10
smoothSolver:  Solving for omega, Initial residual = 0.000757466, Final residual = 3.29867e-09, No Iterations 2
smoothSolver:  Solving for k, Initial residual = 0.000344704, Final residual = 1.16187e-08, No Iterations 2
ExecutionTime = 3382.31 s  ClockTime = 3414 s

Courant Number mean: 0.0784279 max: 4.73047
deltaT = 0.555556
Time = 198.888889s

PIMPLE: Iteration 1
smoothSolver:  Solving for Ux, Initial residual = 0.000230883, Final residual = 4.36777e-07, No Iterations 1
smoothSolver:  Solving for Uy, Initial residual = 0.00152915, Final residual = 2.94782e-06, No Iterations 1
smoothSolver:  Solving for Uz, Initial residual = 0.00444506, Final residual = 6.77982e-06, No Iterations 1
GAMG:  Solving for p, Initial residual = 0.00339287, Final residual = 0.000164462, No Iterations 6
GAMG:  Solving for p, Initial residual = 0.00214589, Final residual = 0.00010196, No Iterations 5
GAMG:  Solving for p, Initial residual = 0.000724063, Final residual = 3.46984e-05, No Iterations 20
time step continuity errors : sum local = 4.65255e-09, global = 5.16841e-10
GAMG:  Solving for p, Initial residual = 0.00240905, Final residual = 0.000109981, No Iterations 6
GAMG:  Solving for p, Initial residual = 0.00145709, Final residual = 6.37334e-05, No Iterations 6
GAMG:  Solving for p, Initial residual = 0.000505687, Final residual = 9.60092e-07, No Iterations 128
time step continuity errors : sum local = 1.28751e-10, global = 1.37802e-11
PIMPLE: Iteration 2
smoothSolver:  Solving for Ux, Initial residual = 7.21925e-05, Final residual = 2.57165e-09, No Iterations 2
smoothSolver:  Solving for Uy, Initial residual = 0.000479701, Final residual = 2.51957e-08, No Iterations 2
smoothSolver:  Solving for Uz, Initial residual = 0.00138043, Final residual = 5.30988e-08, No Iterations 2
GAMG:  Solving for p, Initial residual = 0.00335742, Final residual = 0.000157737, No Iterations 5
GAMG:  Solving for p, Initial residual = 0.00172757, Final residual = 7.89896e-05, No Iterations 6
GAMG:  Solving for p, Initial residual = 0.000589627, Final residual = 2.86146e-05, No Iterations 22
time step continuity errors : sum local = 3.8301e-09, global = -4.83475e-10
GAMG:  Solving for p, Initial residual = 0.00237831, Final residual = 0.000114167, No Iterations 5
GAMG:  Solving for p, Initial residual = 0.00124497, Final residual = 6.09934e-05, No Iterations 6
GAMG:  Solving for p, Initial residual = 0.000436582, Final residual = 9.60547e-07, No Iterations 129
time step continuity errors : sum local = 1.28571e-10, global = -1.38555e-11, cumulative = -3.398e-10
smoothSolver:  Solving for omega, Initial residual = 0.000757787, Final residual = 3.3017e-09, No Iterations 2
smoothSolver:  Solving for k, Initial residual = 0.000343748, Final residual = 1.15654e-08, No Iterations 2
ExecutionTime = 3388.91 s  ClockTime = 3421 s

Courant Number mean: 0.0784212 max: 4.7271
deltaT = 0.555556
Time = 199.444444s

PIMPLE: Iteration 1
smoothSolver:  Solving for Ux, Initial residual = 0.000230296, Final residual = 4.34792e-07, No Iterations 1
smoothSolver:  Solving for Uy, Initial residual = 0.00152698, Final residual = 2.93242e-06, No Iterations 1
smoothSolver:  Solving for Uz, Initial residual = 0.00443416, Final residual = 6.75029e-06, No Iterations 1
GAMG:  Solving for p, Initial residual = 0.00340057, Final residual = 0.000164004, No Iterations 6
GAMG:  Solving for p, Initial residual = 0.0021422, Final residual = 0.000101659, No Iterations 5
GAMG:  Solving for p, Initial residual = 0.000722599, Final residual = 3.44966e-05, No Iterations 20
time step continuity errors : sum local = 4.6201e-09, global = 5.12842e-10
GAMG:  Solving for p, Initial residual = 0.002415, Final residual = 0.000109653, No Iterations 6
GAMG:  Solving for p, Initial residual = 0.00145393, Final residual = 6.35463e-05, No Iterations 6
GAMG:  Solving for p, Initial residual = 0.000504481, Final residual = 9.53153e-07, No Iterations 128
time step continuity errors : sum local = 1.27672e-10, global = 1.36647e-11
PIMPLE: Iteration 2
smoothSolver:  Solving for Ux, Initial residual = 7.20055e-05, Final residual = 2.55709e-09, No Iterations 2
smoothSolver:  Solving for Uy, Initial residual = 0.000478971, Final residual = 2.50309e-08, No Iterations 2
smoothSolver:  Solving for Uz, Initial residual = 0.00137748, Final residual = 5.28226e-08, No Iterations 2
GAMG:  Solving for p, Initial residual = 0.00336477, Final residual = 0.000157004, No Iterations 5
GAMG:  Solving for p, Initial residual = 0.00172394, Final residual = 7.85585e-05, No Iterations 6
GAMG:  Solving for p, Initial residual = 0.000587096, Final residual = 2.8498e-05, No Iterations 22
time step continuity errors : sum local = 3.80999e-09, global = -4.80339e-10
GAMG:  Solving for p, Initial residual = 0.00238345, Final residual = 0.000113742, No Iterations 5
GAMG:  Solving for p, Initial residual = 0.00124216, Final residual = 6.06512e-05, No Iterations 6
GAMG:  Solving for p, Initial residual = 0.000433703, Final residual = 9.58713e-07, No Iterations 129
time step continuity errors : sum local = 1.28174e-10, global = -1.38118e-11, cumulative = -3.53612e-10
smoothSolver:  Solving for omega, Initial residual = 0.000758102, Final residual = 3.30321e-09, No Iterations 2
smoothSolver:  Solving for k, Initial residual = 0.000342849, Final residual = 1.15104e-08, No Iterations 2
ExecutionTime = 3395.51 s  ClockTime = 3428 s

Courant Number mean: 0.0784146 max: 4.72379
deltaT = 0.555556
Time = 200s

PIMPLE: Iteration 1
smoothSolver:  Solving for Ux, Initial residual = 0.000229719, Final residual = 4.32826e-07, No Iterations 1
smoothSolver:  Solving for Uy, Initial residual = 0.00152515, Final residual = 2.91834e-06, No Iterations 1
smoothSolver:  Solving for Uz, Initial residual = 0.00442464, Final residual = 6.72129e-06, No Iterations 1
GAMG:  Solving for p, Initial residual = 0.00339809, Final residual = 0.000163395, No Iterations 6
GAMG:  Solving for p, Initial residual = 0.00212697, Final residual = 0.000101646, No Iterations 5
GAMG:  Solving for p, Initial residual = 0.000719186, Final residual = 3.44332e-05, No Iterations 20
time step continuity errors : sum local = 4.60627e-09, global = 5.1113e-10
GAMG:  Solving for p, Initial residual = 0.00241461, Final residual = 0.000109571, No Iterations 6
GAMG:  Solving for p, Initial residual = 0.00144945, Final residual = 6.32456e-05, No Iterations 6
GAMG:  Solving for p, Initial residual = 0.000502727, Final residual = 9.44199e-07, No Iterations 128
time step continuity errors : sum local = 1.26327e-10, global = 1.35211e-11
PIMPLE: Iteration 2
smoothSolver:  Solving for Ux, Initial residual = 7.18217e-05, Final residual = 2.54288e-09, No Iterations 2
smoothSolver:  Solving for Uy, Initial residual = 0.000478355, Final residual = 2.48742e-08, No Iterations 2
smoothSolver:  Solving for Uz, Initial residual = 0.00137438, Final residual = 5.25626e-08, No Iterations 2
GAMG:  Solving for p, Initial residual = 0.00337428, Final residual = 0.000156274, No Iterations 5
GAMG:  Solving for p, Initial residual = 0.00171383, Final residual = 7.8449e-05, No Iterations 6
GAMG:  Solving for p, Initial residual = 0.000585644, Final residual = 2.83412e-05, No Iterations 22
time step continuity errors : sum local = 3.78467e-09, global = -4.76373e-10
GAMG:  Solving for p, Initial residual = 0.00238996, Final residual = 0.000114384, No Iterations 5
GAMG:  Solving for p, Initial residual = 0.00123108, Final residual = 6.06619e-05, No Iterations 6
GAMG:  Solving for p, Initial residual = 0.000427709, Final residual = 9.68957e-07, No Iterations 129
time step continuity errors : sum local = 1.29394e-10, global = -1.39415e-11, cumulative = -3.67553e-10
smoothSolver:  Solving for omega, Initial residual = 0.00075843, Final residual = 3.29815e-09, No Iterations 2
smoothSolver:  Solving for k, Initial residual = 0.000341987, Final residual = 1.14591e-08, No Iterations 2
ExecutionTime = 3403.36 s  ClockTime = 3436 s

End

