/*---------------------------------------------------------------------------*\
  =========                 |
  \\      /  F ield         | OpenFOAM: The Open Source CFD Toolbox
   \\    /   O peration     | Website:  https://openfoam.org
    \\  /    A nd           | Version:  13
     \\/     M anipulation  |
\*---------------------------------------------------------------------------*/
Build  : 13-441953dfbb42
Exec   : foamRun -solver incompressibleFluid
Date   : Jun 18 2026
Time   : 13:24:20
Host   : "openfoam"
PID    : 1702
I/O    : uncollated
Case   : /home/ubuntu/OpenFOAM/ubuntu-v13/run/wStockNoTerrain/urans/summer
nProcs : 1
sigFpe : Floating point exception trapping - not supported on this platform
fileModificationChecking : Monitoring run-time modified files using timeStampMaster (fileModificationSkew 10)
allowSystemOperations : Allowing user-supplied system call operations

// * * * * * * * * * * * * * * * * * * * * * * * * * * * * * * * * * * * * * //
Create time

Create mesh for time = 5

Selecting solver incompressibleFluid
Selecting viscosity model constant
Selecting turbulence model type RAS
    Selecting RAS turbulence model kOmegaSST
No MRF models present

Selecting patchDistMethod meshWave
Courant Number mean: 0.0393485 max: 4.59675

PIMPLE: No convergence criteria found


PIMPLE: No corrector convergence criteria found
        Calculations will do 2 corrections


PIMPLE: Operating solver in transient mode with 2 outer correctors



Starting time loop

Reading surface description:
    pedestrianZone

Courant Number mean: 0.0393485 max: 4.59675
deltaT = 0.401786
--> FOAM Warning : 
    From function virtual Foam::Time& Foam::Time::operator++()
    in file db/Time/Time.C at line 1304
    Increased the timePrecision from 6 to 7 to distinguish between timeNames at time 5.401786
Time = 5.401786s

PIMPLE: Iteration 1
smoothSolver:  Solving for Ux, Initial residual = 0.0501228, Final residual = 3.27959e-05, No Iterations 1
smoothSolver:  Solving for Uy, Initial residual = 0.00995934, Final residual = 4.77135e-05, No Iterations 1
smoothSolver:  Solving for Uz, Initial residual = 0.0133427, Final residual = 4.41489e-05, No Iterations 1
GAMG:  Solving for p, Initial residual = 0.0125001, Final residual = 0.00056464, No Iterations 10
GAMG:  Solving for p, Initial residual = 0.00719519, Final residual = 0.000341576, No Iterations 10
GAMG:  Solving for p, Initial residual = 0.00296833, Final residual = 0.000143627, No Iterations 36
time step continuity errors : sum local = 3.55011e-07, global = 3.30759e-08
GAMG:  Solving for p, Initial residual = 0.00892139, Final residual = 0.000428985, No Iterations 10
GAMG:  Solving for p, Initial residual = 0.00503683, Final residual = 0.000251037, No Iterations 12
GAMG:  Solving for p, Initial residual = 0.00241477, Final residual = 9.88371e-07, No Iterations 262
time step continuity errors : sum local = 2.42899e-09, global = 2.30434e-10
PIMPLE: Iteration 2
smoothSolver:  Solving for Ux, Initial residual = 0.0154178, Final residual = 3.42572e-09, No Iterations 3
smoothSolver:  Solving for Uy, Initial residual = 0.00344918, Final residual = 4.85872e-08, No Iterations 3
smoothSolver:  Solving for Uz, Initial residual = 0.00423868, Final residual = 2.15508e-08, No Iterations 3
GAMG:  Solving for p, Initial residual = 0.00990338, Final residual = 0.000485906, No Iterations 10
GAMG:  Solving for p, Initial residual = 0.00609021, Final residual = 0.000296583, No Iterations 10
GAMG:  Solving for p, Initial residual = 0.00279736, Final residual = 0.000137298, No Iterations 32
time step continuity errors : sum local = 3.36757e-07, global = 3.09904e-08
GAMG:  Solving for p, Initial residual = 0.00760421, Final residual = 0.000373462, No Iterations 10
GAMG:  Solving for p, Initial residual = 0.00436984, Final residual = 0.000208937, No Iterations 14
GAMG:  Solving for p, Initial residual = 0.00244989, Final residual = 9.95771e-07, No Iterations 254
time step continuity errors : sum local = 2.4293e-09, global = 2.30754e-10, cumulative = 2.30754e-10
smoothSolver:  Solving for omega, Initial residual = 0.0213191, Final residual = 8.97438e-08, No Iterations 2
smoothSolver:  Solving for k, Initial residual = 0.631604, Final residual = 5.3355e-09, No Iterations 4
ExecutionTime = 15.1196 s  ClockTime = 18 s

Courant Number mean: 0.0433507 max: 5.02899
deltaT = 0.398198
Time = 5.799984s

PIMPLE: Iteration 1
smoothSolver:  Solving for Ux, Initial residual = 0.046836, Final residual = 3.09507e-05, No Iterations 1
smoothSolver:  Solving for Uy, Initial residual = 0.0105367, Final residual = 4.59206e-05, No Iterations 1
smoothSolver:  Solving for Uz, Initial residual = 0.0122024, Final residual = 3.75675e-05, No Iterations 1
GAMG:  Solving for p, Initial residual = 0.00939958, Final residual = 0.000437844, No Iterations 8
GAMG:  Solving for p, Initial residual = 0.00343103, Final residual = 0.00016222, No Iterations 22
GAMG:  Solving for p, Initial residual = 0.0027621, Final residual = 0.000133725, No Iterations 10
time step continuity errors : sum local = 3.25124e-07, global = 2.82343e-08
GAMG:  Solving for p, Initial residual = 0.00668678, Final residual = 0.000293512, No Iterations 10
GAMG:  Solving for p, Initial residual = 0.00287067, Final residual = 0.000141012, No Iterations 18
GAMG:  Solving for p, Initial residual = 0.00184747, Final residual = 9.7884e-07, No Iterations 236
time step continuity errors : sum local = 2.37386e-09, global = 2.2548e-10
PIMPLE: Iteration 2
smoothSolver:  Solving for Ux, Initial residual = 0.01446, Final residual = 3.24772e-09, No Iterations 3
smoothSolver:  Solving for Uy, Initial residual = 0.00350603, Final residual = 4.56583e-08, No Iterations 3
smoothSolver:  Solving for Uz, Initial residual = 0.00394715, Final residual = 1.96981e-08, No Iterations 3
GAMG:  Solving for p, Initial residual = 0.00798939, Final residual = 0.000355758, No Iterations 10
GAMG:  Solving for p, Initial residual = 0.00402393, Final residual = 0.000201074, No Iterations 12
GAMG:  Solving for p, Initial residual = 0.00207236, Final residual = 0.000102623, No Iterations 28
time step continuity errors : sum local = 2.47596e-07, global = 2.27027e-08
GAMG:  Solving for p, Initial residual = 0.00610627, Final residual = 0.000275557, No Iterations 10
GAMG:  Solving for p, Initial residual = 0.00300483, Final residual = 0.000142835, No Iterations 16
GAMG:  Solving for p, Initial residual = 0.00184444, Final residual = 9.73844e-07, No Iterations 238
time step continuity errors : sum local = 2.34104e-09, global = 2.22303e-10, cumulative = 4.53057e-10
smoothSolver:  Solving for omega, Initial residual = 0.0196992, Final residual = 8.41849e-08, No Iterations 2
smoothSolver:  Solving for k, Initial residual = 0.493597, Final residual = 8.00654e-08, No Iterations 3
ExecutionTime = 26.6129 s  ClockTime = 29 s

Courant Number mean: 0.043579 max: 5.02704
deltaT = 0.394643
Time = 6.194627s

PIMPLE: Iteration 1
smoothSolver:  Solving for Ux, Initial residual = 0.04416, Final residual = 2.88176e-05, No Iterations 1
smoothSolver:  Solving for Uy, Initial residual = 0.0103947, Final residual = 4.29112e-05, No Iterations 1
smoothSolver:  Solving for Uz, Initial residual = 0.0114879, Final residual = 3.37522e-05, No Iterations 1
GAMG:  Solving for p, Initial residual = 0.00819414, Final residual = 0.000390415, No Iterations 10
GAMG:  Solving for p, Initial residual = 0.00428575, Final residual = 0.000206366, No Iterations 16
GAMG:  Solving for p, Initial residual = 0.00236458, Final residual = 0.000117154, No Iterations 24
time step continuity errors : sum local = 2.75893e-07, global = 2.54213e-08
GAMG:  Solving for p, Initial residual = 0.0061808, Final residual = 0.000304822, No Iterations 10
GAMG:  Solving for p, Initial residual = 0.0032787, Final residual = 0.000163532, No Iterations 16
GAMG:  Solving for p, Initial residual = 0.00185972, Final residual = 9.91508e-07, No Iterations 242
time step continuity errors : sum local = 2.32735e-09, global = 2.2082e-10
PIMPLE: Iteration 2
smoothSolver:  Solving for Ux, Initial residual = 0.0136062, Final residual = 2.89963e-09, No Iterations 3
smoothSolver:  Solving for Uy, Initial residual = 0.00341668, Final residual = 4.09042e-08, No Iterations 3
smoothSolver:  Solving for Uz, Initial residual = 0.00379537, Final residual = 1.70581e-08, No Iterations 3
GAMG:  Solving for p, Initial residual = 0.00747357, Final residual = 0.000371452, No Iterations 10
GAMG:  Solving for p, Initial residual = 0.00451174, Final residual = 0.000223236, No Iterations 12
GAMG:  Solving for p, Initial residual = 0.00218346, Final residual = 0.00010869, No Iterations 30
time step continuity errors : sum local = 2.53507e-07, global = 2.33375e-08
GAMG:  Solving for p, Initial residual = 0.00583871, Final residual = 0.000288861, No Iterations 10
GAMG:  Solving for p, Initial residual = 0.00344468, Final residual = 0.000167026, No Iterations 14
GAMG:  Solving for p, Initial residual = 0.00182659, Final residual = 9.89197e-07, No Iterations 244
time step continuity errors : sum local = 2.29858e-09, global = 2.17994e-10, cumulative = 6.71051e-10
smoothSolver:  Solving for omega, Initial residual = 0.0181878, Final residual = 7.53792e-08, No Iterations 2
smoothSolver:  Solving for k, Initial residual = 0.397545, Final residual = 6.1147e-08, No Iterations 3
ExecutionTime = 38.2838 s  ClockTime = 41 s

Courant Number mean: 0.0437711 max: 5.02692
deltaT = 0.391119
Time = 6.585746s

PIMPLE: Iteration 1
smoothSolver:  Solving for Ux, Initial residual = 0.0415995, Final residual = 2.68253e-05, No Iterations 1
smoothSolver:  Solving for Uy, Initial residual = 0.0100297, Final residual = 4.00407e-05, No Iterations 1
smoothSolver:  Solving for Uz, Initial residual = 0.0112327, Final residual = 3.21679e-05, No Iterations 1
GAMG:  Solving for p, Initial residual = 0.0082935, Final residual = 0.000408382, No Iterations 10
GAMG:  Solving for p, Initial residual = 0.00449322, Final residual = 0.000212548, No Iterations 18
GAMG:  Solving for p, Initial residual = 0.00276408, Final residual = 0.000136098, No Iterations 20
time step continuity errors : sum local = 3.08704e-07, global = 2.83285e-08
GAMG:  Solving for p, Initial residual = 0.0062254, Final residual = 0.000277027, No Iterations 12
GAMG:  Solving for p, Initial residual = 0.00362625, Final residual = 0.00017164, No Iterations 16
GAMG:  Solving for p, Initial residual = 0.00200101, Final residual = 9.82446e-07, No Iterations 246
time step continuity errors : sum local = 2.22039e-09, global = 2.10424e-10
PIMPLE: Iteration 2
smoothSolver:  Solving for Ux, Initial residual = 0.0127909, Final residual = 2.58287e-09, No Iterations 3
smoothSolver:  Solving for Uy, Initial residual = 0.00330997, Final residual = 3.65295e-08, No Iterations 3
smoothSolver:  Solving for Uz, Initial residual = 0.00372301, Final residual = 1.47114e-08, No Iterations 3
GAMG:  Solving for p, Initial residual = 0.00783997, Final residual = 0.000386216, No Iterations 10
GAMG:  Solving for p, Initial residual = 0.00466633, Final residual = 0.000227088, No Iterations 14
GAMG:  Solving for p, Initial residual = 0.00255513, Final residual = 0.000123041, No Iterations 26
time step continuity errors : sum local = 2.76319e-07, global = 2.53619e-08
GAMG:  Solving for p, Initial residual = 0.00607962, Final residual = 0.000301235, No Iterations 10
GAMG:  Solving for p, Initial residual = 0.00358437, Final residual = 0.000179164, No Iterations 14
GAMG:  Solving for p, Initial residual = 0.0019733, Final residual = 9.82657e-07, No Iterations 248
time step continuity errors : sum local = 2.19918e-09, global = 2.0824e-10, cumulative = 8.79291e-10
smoothSolver:  Solving for omega, Initial residual = 0.0168098, Final residual = 6.75337e-08, No Iterations 2
smoothSolver:  Solving for k, Initial residual = 0.328102, Final residual = 4.83485e-08, No Iterations 3
ExecutionTime = 50.1618 s  ClockTime = 53 s

Courant Number mean: 0.0439245 max: 5.02838
deltaT = 0.387627
Time = 6.973374s

PIMPLE: Iteration 1
smoothSolver:  Solving for Ux, Initial residual = 0.0391536, Final residual = 2.4841e-05, No Iterations 1
smoothSolver:  Solving for Uy, Initial residual = 0.00978435, Final residual = 3.75072e-05, No Iterations 1
smoothSolver:  Solving for Uz, Initial residual = 0.0110974, Final residual = 3.19342e-05, No Iterations 1
GAMG:  Solving for p, Initial residual = 0.00928332, Final residual = 0.00042224, No Iterations 10
GAMG:  Solving for p, Initial residual = 0.00436563, Final residual = 0.000208492, No Iterations 20
GAMG:  Solving for p, Initial residual = 0.00307627, Final residual = 0.000150707, No Iterations 16
time step continuity errors : sum local = 3.28515e-07, global = 2.93699e-08
GAMG:  Solving for p, Initial residual = 0.00682513, Final residual = 0.000332932, No Iterations 10
GAMG:  Solving for p, Initial residual = 0.00341281, Final residual = 0.000166917, No Iterations 20
GAMG:  Solving for p, Initial residual = 0.00244727, Final residual = 9.9588e-07, No Iterations 246
time step continuity errors : sum local = 2.16352e-09, global = 2.0469e-10
PIMPLE: Iteration 2
smoothSolver:  Solving for Ux, Initial residual = 0.0120175, Final residual = 2.30355e-09, No Iterations 3
smoothSolver:  Solving for Uy, Initial residual = 0.00324944, Final residual = 3.28193e-08, No Iterations 3
smoothSolver:  Solving for Uz, Initial residual = 0.00368606, Final residual = 1.3122e-08, No Iterations 3
GAMG:  Solving for p, Initial residual = 0.00874761, Final residual = 0.000400833, No Iterations 10
GAMG:  Solving for p, Initial residual = 0.00468061, Final residual = 0.000233698, No Iterations 14
GAMG:  Solving for p, Initial residual = 0.00268686, Final residual = 0.000133458, No Iterations 24
time step continuity errors : sum local = 2.88078e-07, global = 2.63556e-08
GAMG:  Solving for p, Initial residual = 0.00671483, Final residual = 0.000313764, No Iterations 10
GAMG:  Solving for p, Initial residual = 0.00357079, Final residual = 0.000175866, No Iterations 16
GAMG:  Solving for p, Initial residual = 0.00223366, Final residual = 9.89175e-07, No Iterations 248
time step continuity errors : sum local = 2.12692e-09, global = 2.01249e-10, cumulative = 1.08054e-09
smoothSolver:  Solving for omega, Initial residual = 0.0155621, Final residual = 6.02489e-08, No Iterations 2
smoothSolver:  Solving for k, Initial residual = 0.275996, Final residual = 3.85417e-08, No Iterations 3
ExecutionTime = 61.8985 s  ClockTime = 65 s

Courant Number mean: 0.0440414 max: 5.03108
deltaT = 0.384166
Time = 7.35754s

PIMPLE: Iteration 1
smoothSolver:  Solving for Ux, Initial residual = 0.0368376, Final residual = 2.30471e-05, No Iterations 1
smoothSolver:  Solving for Uy, Initial residual = 0.00971355, Final residual = 3.52956e-05, No Iterations 1
smoothSolver:  Solving for Uz, Initial residual = 0.0110094, Final residual = 3.26842e-05, No Iterations 1
GAMG:  Solving for p, Initial residual = 0.0100679, Final residual = 0.000444643, No Iterations 10
GAMG:  Solving for p, Initial residual = 0.00450987, Final residual = 0.00021849, No Iterations 20
GAMG:  Solving for p, Initial residual = 0.00326682, Final residual = 0.000158166, No Iterations 16
time step continuity errors : sum local = 3.30905e-07, global = 2.95297e-08
GAMG:  Solving for p, Initial residual = 0.00741113, Final residual = 0.000351064, No Iterations 10
GAMG:  Solving for p, Initial residual = 0.00353974, Final residual = 0.000174976, No Iterations 20
GAMG:  Solving for p, Initial residual = 0.00259735, Final residual = 9.62821e-07, No Iterations 250
time step continuity errors : sum local = 2.00727e-09, global = 1.89803e-10
PIMPLE: Iteration 2
smoothSolver:  Solving for Ux, Initial residual = 0.011296, Final residual = 9.43083e-08, No Iterations 2
smoothSolver:  Solving for Uy, Initial residual = 0.00322929, Final residual = 2.96562e-08, No Iterations 3
smoothSolver:  Solving for Uz, Initial residual = 0.00371208, Final residual = 1.23675e-08, No Iterations 3
GAMG:  Solving for p, Initial residual = 0.00947377, Final residual = 0.000421767, No Iterations 10
GAMG:  Solving for p, Initial residual = 0.00490245, Final residual = 0.000242804, No Iterations 14
GAMG:  Solving for p, Initial residual = 0.00284561, Final residual = 0.000139506, No Iterations 24
time step continuity errors : sum local = 2.88859e-07, global = 2.6423e-08
GAMG:  Solving for p, Initial residual = 0.00729215, Final residual = 0.000330332, No Iterations 10
GAMG:  Solving for p, Initial residual = 0.00372418, Final residual = 0.00018316, No Iterations 16
GAMG:  Solving for p, Initial residual = 0.00236095, Final residual = 9.93149e-07, No Iterations 250
time step continuity errors : sum local = 2.04807e-09, global = 1.93704e-10, cumulative = 1.27424e-09
smoothSolver:  Solving for omega, Initial residual = 0.0144342, Final residual = 5.40727e-08, No Iterations 2
smoothSolver:  Solving for k, Initial residual = 0.235336, Final residual = 3.11129e-08, No Iterations 3
ExecutionTime = 73.7227 s  ClockTime = 77 s

Courant Number mean: 0.0441264 max: 5.03462
deltaT = 0.380736
Time = 7.738276s

PIMPLE: Iteration 1
smoothSolver:  Solving for Ux, Initial residual = 0.0346661, Final residual = 2.13893e-05, No Iterations 1
smoothSolver:  Solving for Uy, Initial residual = 0.00972675, Final residual = 3.33347e-05, No Iterations 1
smoothSolver:  Solving for Uz, Initial residual = 0.0110954, Final residual = 3.37252e-05, No Iterations 1
GAMG:  Solving for p, Initial residual = 0.0104935, Final residual = 0.000470303, No Iterations 10
GAMG:  Solving for p, Initial residual = 0.00480682, Final residual = 0.000230386, No Iterations 20
GAMG:  Solving for p, Initial residual = 0.00349525, Final residual = 0.000167133, No Iterations 16
time step continuity errors : sum local = 3.35157e-07, global = 2.98449e-08
GAMG:  Solving for p, Initial residual = 0.00777273, Final residual = 0.000371855, No Iterations 10
GAMG:  Solving for p, Initial residual = 0.00376882, Final residual = 0.000184647, No Iterations 20
GAMG:  Solving for p, Initial residual = 0.00277691, Final residual = 9.78153e-07, No Iterations 252
time step continuity errors : sum local = 1.95426e-09, global = 1.84719e-10
PIMPLE: Iteration 2
smoothSolver:  Solving for Ux, Initial residual = 0.0106195, Final residual = 8.57805e-08, No Iterations 2
smoothSolver:  Solving for Uy, Initial residual = 0.00321824, Final residual = 2.68283e-08, No Iterations 3
smoothSolver:  Solving for Uz, Initial residual = 0.00378119, Final residual = 1.14967e-08, No Iterations 3
GAMG:  Solving for p, Initial residual = 0.00987337, Final residual = 0.000445039, No Iterations 10
GAMG:  Solving for p, Initial residual = 0.00517563, Final residual = 0.000254822, No Iterations 14
GAMG:  Solving for p, Initial residual = 0.00302467, Final residual = 0.000147001, No Iterations 24
time step continuity errors : sum local = 2.91616e-07, global = 2.66677e-08
GAMG:  Solving for p, Initial residual = 0.00767935, Final residual = 0.000349014, No Iterations 10
GAMG:  Solving for p, Initial residual = 0.0039279, Final residual = 0.000192609, No Iterations 16
GAMG:  Solving for p, Initial residual = 0.00250774, Final residual = 9.65221e-07, No Iterations 254
time step continuity errors : sum local = 1.90662e-09, global = 1.80247e-10, cumulative = 1.45449e-09
smoothSolver:  Solving for omega, Initial residual = 0.0134128, Final residual = 4.8556e-08, No Iterations 2
smoothSolver:  Solving for k, Initial residual = 0.202814, Final residual = 2.52764e-08, No Iterations 3
ExecutionTime = 85.6516 s  ClockTime = 88 s

Courant Number mean: 0.0441911 max: 5.03877
deltaT = 0.377337
Time = 8.115613s

PIMPLE: Iteration 1
smoothSolver:  Solving for Ux, Initial residual = 0.0326211, Final residual = 1.9848e-05, No Iterations 1
smoothSolver:  Solving for Uy, Initial residual = 0.00970283, Final residual = 3.15627e-05, No Iterations 1
smoothSolver:  Solving for Uz, Initial residual = 0.0113019, Final residual = 3.43233e-05, No Iterations 1
GAMG:  Solving for p, Initial residual = 0.0105093, Final residual = 0.00049556, No Iterations 10
GAMG:  Solving for p, Initial residual = 0.00513747, Final residual = 0.00024345, No Iterations 20
GAMG:  Solving for p, Initial residual = 0.00374215, Final residual = 0.000185685, No Iterations 14
time step continuity errors : sum local = 3.56433e-07, global = 3.10517e-08
GAMG:  Solving for p, Initial residual = 0.00782094, Final residual = 0.000338938, No Iterations 12
GAMG:  Solving for p, Initial residual = 0.00433074, Final residual = 0.000209071, No Iterations 16
GAMG:  Solving for p, Initial residual = 0.00261459, Final residual = 9.95719e-07, No Iterations 256
time step continuity errors : sum local = 1.9043e-09, global = 1.79928e-10
PIMPLE: Iteration 2
smoothSolver:  Solving for Ux, Initial residual = 0.00998193, Final residual = 7.80362e-08, No Iterations 2
smoothSolver:  Solving for Uy, Initial residual = 0.00319238, Final residual = 2.44012e-08, No Iterations 3
smoothSolver:  Solving for Uz, Initial residual = 0.00384467, Final residual = 1.09481e-08, No Iterations 3
GAMG:  Solving for p, Initial residual = 0.0101273, Final residual = 0.00046791, No Iterations 10
GAMG:  Solving for p, Initial residual = 0.00546473, Final residual = 0.000268678, No Iterations 14
GAMG:  Solving for p, Initial residual = 0.00320613, Final residual = 0.000155408, No Iterations 24
time step continuity errors : sum local = 2.94965e-07, global = 2.6969e-08
GAMG:  Solving for p, Initial residual = 0.00793048, Final residual = 0.000367635, No Iterations 10
GAMG:  Solving for p, Initial residual = 0.00414513, Final residual = 0.000203404, No Iterations 16
GAMG:  Solving for p, Initial residual = 0.0026595, Final residual = 9.81735e-07, No Iterations 256
time step continuity errors : sum local = 1.85495e-09, global = 1.75303e-10, cumulative = 1.62979e-09
smoothSolver:  Solving for omega, Initial residual = 0.0124866, Final residual = 4.35838e-08, No Iterations 2
smoothSolver:  Solving for k, Initial residual = 0.176694, Final residual = 2.11613e-08, No Iterations 3
ExecutionTime = 98.1471 s  ClockTime = 101 s

Courant Number mean: 0.0442341 max: 5.04334
deltaT = 0.373968
Time = 8.489581s

PIMPLE: Iteration 1
smoothSolver:  Solving for Ux, Initial residual = 0.0306863, Final residual = 1.84139e-05, No Iterations 1
smoothSolver:  Solving for Uy, Initial residual = 0.00959866, Final residual = 2.98834e-05, No Iterations 1
smoothSolver:  Solving for Uz, Initial residual = 0.011437, Final residual = 3.43313e-05, No Iterations 1
GAMG:  Solving for p, Initial residual = 0.0105531, Final residual = 0.000519883, No Iterations 10
GAMG:  Solving for p, Initial residual = 0.00548198, Final residual = 0.000271397, No Iterations 18
GAMG:  Solving for p, Initial residual = 0.0037759, Final residual = 0.000184802, No Iterations 18
time step continuity errors : sum local = 3.39373e-07, global = 3.06931e-08
GAMG:  Solving for p, Initial residual = 0.00804529, Final residual = 0.000354674, No Iterations 12
GAMG:  Solving for p, Initial residual = 0.00458188, Final residual = 0.000219861, No Iterations 16
GAMG:  Solving for p, Initial residual = 0.00276913, Final residual = 9.68135e-07, No Iterations 260
time step continuity errors : sum local = 1.76983e-09, global = 1.67174e-10
PIMPLE: Iteration 2
smoothSolver:  Solving for Ux, Initial residual = 0.00937872, Final residual = 7.10556e-08, No Iterations 2
smoothSolver:  Solving for Uy, Initial residual = 0.00313675, Final residual = 2.21683e-08, No Iterations 3
smoothSolver:  Solving for Uz, Initial residual = 0.00386815, Final residual = 1.05046e-08, No Iterations 3
GAMG:  Solving for p, Initial residual = 0.0102981, Final residual = 0.000492352, No Iterations 10
GAMG:  Solving for p, Initial residual = 0.00579066, Final residual = 0.00028466, No Iterations 14
GAMG:  Solving for p, Initial residual = 0.00340236, Final residual = 0.000164953, No Iterations 24
time step continuity errors : sum local = 2.99146e-07, global = 2.73486e-08
GAMG:  Solving for p, Initial residual = 0.0081133, Final residual = 0.000387559, No Iterations 10
GAMG:  Solving for p, Initial residual = 0.00439261, Final residual = 0.000215752, No Iterations 16
GAMG:  Solving for p, Initial residual = 0.00282462, Final residual = 9.61556e-07, No Iterations 260
time step continuity errors : sum local = 1.73548e-09, global = 1.63967e-10, cumulative = 1.79376e-09
smoothSolver:  Solving for omega, Initial residual = 0.0116453, Final residual = 3.91461e-08, No Iterations 2
smoothSolver:  Solving for k, Initial residual = 0.155383, Final residual = 1.77789e-08, No Iterations 3
ExecutionTime = 110.536 s  ClockTime = 113 s

Courant Number mean: 0.0442514 max: 5.04791
deltaT = 0.367349
Time = 8.85693s

PIMPLE: Iteration 1
smoothSolver:  Solving for Ux, Initial residual = 0.0286044, Final residual = 1.67187e-05, No Iterations 1
smoothSolver:  Solving for Uy, Initial residual = 0.00931109, Final residual = 2.7685e-05, No Iterations 1
smoothSolver:  Solving for Uz, Initial residual = 0.0113747, Final residual = 3.30554e-05, No Iterations 1
GAMG:  Solving for p, Initial residual = 0.0105636, Final residual = 0.000520747, No Iterations 10
GAMG:  Solving for p, Initial residual = 0.00548617, Final residual = 0.00027376, No Iterations 18
GAMG:  Solving for p, Initial residual = 0.00381187, Final residual = 0.000186662, No Iterations 18
time step continuity errors : sum local = 3.22915e-07, global = 2.91632e-08
GAMG:  Solving for p, Initial residual = 0.00806857, Final residual = 0.000356403, No Iterations 12
GAMG:  Solving for p, Initial residual = 0.0045931, Final residual = 0.000222173, No Iterations 16
GAMG:  Solving for p, Initial residual = 0.00279208, Final residual = 9.81361e-07, No Iterations 260
time step continuity errors : sum local = 1.68991e-09, global = 1.59534e-10
PIMPLE: Iteration 2
smoothSolver:  Solving for Ux, Initial residual = 0.00873463, Final residual = 6.25728e-08, No Iterations 2
smoothSolver:  Solving for Uy, Initial residual = 0.0030197, Final residual = 1.96656e-08, No Iterations 3
smoothSolver:  Solving for Uz, Initial residual = 0.00381509, Final residual = 9.67501e-09, No Iterations 3
GAMG:  Solving for p, Initial residual = 0.0104155, Final residual = 0.000501913, No Iterations 10
GAMG:  Solving for p, Initial residual = 0.00589266, Final residual = 0.000292285, No Iterations 14
GAMG:  Solving for p, Initial residual = 0.00347849, Final residual = 0.000169428, No Iterations 24
time step continuity errors : sum local = 2.89253e-07, global = 2.64301e-08
GAMG:  Solving for p, Initial residual = 0.00823389, Final residual = 0.000395865, No Iterations 10
GAMG:  Solving for p, Initial residual = 0.00447776, Final residual = 0.000221731, No Iterations 16
GAMG:  Solving for p, Initial residual = 0.00289362, Final residual = 9.89971e-07, No Iterations 260
time step continuity errors : sum local = 1.68182e-09, global = 1.58801e-10, cumulative = 1.95256e-09
smoothSolver:  Solving for omega, Initial residual = 0.0107924, Final residual = 3.41087e-08, No Iterations 2
smoothSolver:  Solving for k, Initial residual = 0.136797, Final residual = 1.4152e-08, No Iterations 3
ExecutionTime = 122.707 s  ClockTime = 126 s

Courant Number mean: 0.0438484 max: 5.00719
deltaT = 0.364098
Time = 9.221028s

PIMPLE: Iteration 1
smoothSolver:  Solving for Ux, Initial residual = 0.0269, Final residual = 1.5469e-05, No Iterations 1
smoothSolver:  Solving for Uy, Initial residual = 0.00900174, Final residual = 2.60811e-05, No Iterations 1
smoothSolver:  Solving for Uz, Initial residual = 0.0113058, Final residual = 3.16192e-05, No Iterations 1
GAMG:  Solving for p, Initial residual = 0.0112256, Final residual = 0.000498266, No Iterations 12
GAMG:  Solving for p, Initial residual = 0.0067095, Final residual = 0.000327105, No Iterations 14
GAMG:  Solving for p, Initial residual = 0.00375966, Final residual = 0.000180876, No Iterations 26
time step continuity errors : sum local = 2.97555e-07, global = 2.73398e-08
GAMG:  Solving for p, Initial residual = 0.00892979, Final residual = 0.000391533, No Iterations 12
GAMG:  Solving for p, Initial residual = 0.0051462, Final residual = 0.000245807, No Iterations 16
GAMG:  Solving for p, Initial residual = 0.00312248, Final residual = 9.6189e-07, No Iterations 266
time step continuity errors : sum local = 1.57344e-09, global = 1.48485e-10
PIMPLE: Iteration 2
smoothSolver:  Solving for Ux, Initial residual = 0.00819763, Final residual = 5.66606e-08, No Iterations 2
smoothSolver:  Solving for Uy, Initial residual = 0.00291771, Final residual = 1.80129e-08, No Iterations 3
smoothSolver:  Solving for Uz, Initial residual = 0.00378329, Final residual = 9.15705e-09, No Iterations 3
GAMG:  Solving for p, Initial residual = 0.0112065, Final residual = 0.000549276, No Iterations 10
GAMG:  Solving for p, Initial residual = 0.00653551, Final residual = 0.000322096, No Iterations 14
GAMG:  Solving for p, Initial residual = 0.0038482, Final residual = 0.000186979, No Iterations 24
time step continuity errors : sum local = 3.03106e-07, global = 2.76893e-08
GAMG:  Solving for p, Initial residual = 0.00888869, Final residual = 0.000433512, No Iterations 10
GAMG:  Solving for p, Initial residual = 0.00497037, Final residual = 0.000244427, No Iterations 16
GAMG:  Solving for p, Initial residual = 0.00319946, Final residual = 9.64893e-07, No Iterations 266
time step continuity errors : sum local = 1.5557e-09, global = 1.46834e-10, cumulative = 2.0994e-09
smoothSolver:  Solving for omega, Initial residual = 0.0101034, Final residual = 3.05609e-08, No Iterations 2
smoothSolver:  Solving for k, Initial residual = 0.122205, Final residual = 1.21344e-08, No Iterations 3
ExecutionTime = 135.205 s  ClockTime = 138 s

Courant Number mean: 0.0438143 max: 5.01052
deltaT = 0.360876
Time = 9.581904s

PIMPLE: Iteration 1
smoothSolver:  Solving for Ux, Initial residual = 0.0252319, Final residual = 1.43123e-05, No Iterations 1
smoothSolver:  Solving for Uy, Initial residual = 0.00870924, Final residual = 2.46482e-05, No Iterations 1
smoothSolver:  Solving for Uz, Initial residual = 0.0112495, Final residual = 3.03612e-05, No Iterations 1
GAMG:  Solving for p, Initial residual = 0.0122708, Final residual = 0.00061139, No Iterations 10
GAMG:  Solving for p, Initial residual = 0.00671688, Final residual = 0.00032449, No Iterations 18
GAMG:  Solving for p, Initial residual = 0.00461306, Final residual = 0.000222229, No Iterations 18
time step continuity errors : sum local = 3.47091e-07, global = 3.1318e-08
GAMG:  Solving for p, Initial residual = 0.00940693, Final residual = 0.000419633, No Iterations 12
GAMG:  Solving for p, Initial residual = 0.00561072, Final residual = 0.000277206, No Iterations 14
GAMG:  Solving for p, Initial residual = 0.00316866, Final residual = 9.84744e-07, No Iterations 270
time step continuity errors : sum local = 1.53055e-09, global = 1.44393e-10
PIMPLE: Iteration 2
smoothSolver:  Solving for Ux, Initial residual = 0.00767927, Final residual = 5.15138e-08, No Iterations 2
smoothSolver:  Solving for Uy, Initial residual = 0.00282262, Final residual = 1.65907e-08, No Iterations 3
smoothSolver:  Solving for Uz, Initial residual = 0.00375368, Final residual = 8.68101e-09, No Iterations 3
GAMG:  Solving for p, Initial residual = 0.0122445, Final residual = 0.000576283, No Iterations 10
GAMG:  Solving for p, Initial residual = 0.00690507, Final residual = 0.000337506, No Iterations 14
GAMG:  Solving for p, Initial residual = 0.00405613, Final residual = 0.000196161, No Iterations 24
time step continuity errors : sum local = 3.01785e-07, global = 2.75632e-08
GAMG:  Solving for p, Initial residual = 0.00967635, Final residual = 0.000454944, No Iterations 10
GAMG:  Solving for p, Initial residual = 0.00525045, Final residual = 0.000256226, No Iterations 16
GAMG:  Solving for p, Initial residual = 0.00337028, Final residual = 9.72133e-07, No Iterations 268
time step continuity errors : sum local = 1.4871e-09, global = 1.40318e-10, cumulative = 2.23971e-09
smoothSolver:  Solving for omega, Initial residual = 0.00947663, Final residual = 2.75644e-08, No Iterations 2
smoothSolver:  Solving for k, Initial residual = 0.109859, Final residual = 1.01986e-08, No Iterations 3
ExecutionTime = 147.604 s  ClockTime = 150 s

Courant Number mean: 0.0437554 max: 5.01208
deltaT = 0.357682
Time = 9.939586s

PIMPLE: Iteration 1
smoothSolver:  Solving for Ux, Initial residual = 0.0236379, Final residual = 1.32247e-05, No Iterations 1
smoothSolver:  Solving for Uy, Initial residual = 0.00843661, Final residual = 2.32904e-05, No Iterations 1
smoothSolver:  Solving for Uz, Initial residual = 0.0111585, Final residual = 2.93656e-05, No Iterations 1
GAMG:  Solving for p, Initial residual = 0.013134, Final residual = 0.000639257, No Iterations 10
GAMG:  Solving for p, Initial residual = 0.00713964, Final residual = 0.000339581, No Iterations 18
GAMG:  Solving for p, Initial residual = 0.00486831, Final residual = 0.000232883, No Iterations 18
time step continuity errors : sum local = 3.44876e-07, global = 3.11008e-08
GAMG:  Solving for p, Initial residual = 0.010062, Final residual = 0.000438911, No Iterations 12
GAMG:  Solving for p, Initial residual = 0.00595168, Final residual = 0.000290121, No Iterations 14
GAMG:  Solving for p, Initial residual = 0.00334577, Final residual = 9.91382e-07, No Iterations 272
time step continuity errors : sum local = 1.46066e-09, global = 1.37757e-10
PIMPLE: Iteration 2
smoothSolver:  Solving for Ux, Initial residual = 0.00718505, Final residual = 4.67725e-08, No Iterations 2
smoothSolver:  Solving for Uy, Initial residual = 0.00273004, Final residual = 1.53189e-08, No Iterations 3
smoothSolver:  Solving for Uz, Initial residual = 0.00370637, Final residual = 8.21503e-09, No Iterations 3
GAMG:  Solving for p, Initial residual = 0.0129683, Final residual = 0.000598023, No Iterations 10
GAMG:  Solving for p, Initial residual = 0.00725105, Final residual = 0.000350172, No Iterations 14
GAMG:  Solving for p, Initial residual = 0.00423391, Final residual = 0.00020369, No Iterations 24
time step continuity errors : sum local = 2.96982e-07, global = 2.71214e-08
GAMG:  Solving for p, Initial residual = 0.0102311, Final residual = 0.000472249, No Iterations 10
GAMG:  Solving for p, Initial residual = 0.00550955, Final residual = 0.000265927, No Iterations 16
GAMG:  Solving for p, Initial residual = 0.00351587, Final residual = 9.69322e-07, No Iterations 270
time step continuity errors : sum local = 1.40496e-09, global = 1.32529e-10, cumulative = 2.37224e-09
smoothSolver:  Solving for omega, Initial residual = 0.00890281, Final residual = 2.49543e-08, No Iterations 2
smoothSolver:  Solving for k, Initial residual = 0.0993003, Final residual = 8.84863e-09, No Iterations 3
ExecutionTime = 160.092 s  ClockTime = 163 s

Courant Number mean: 0.0436737 max: 5.01125
deltaT = 0.354517
--> FOAM Warning : 
    From function virtual Foam::Time& Foam::Time::operator++()
    in file db/Time/Time.C at line 1304
    Increased the timePrecision from 7 to 8 to distinguish between timeNames at time 10.294103
Time = 10.294103s

PIMPLE: Iteration 1
smoothSolver:  Solving for Ux, Initial residual = 0.0221217, Final residual = 1.22082e-05, No Iterations 1
smoothSolver:  Solving for Uy, Initial residual = 0.00816136, Final residual = 2.20091e-05, No Iterations 1
smoothSolver:  Solving for Uz, Initial residual = 0.0110183, Final residual = 2.85189e-05, No Iterations 1
GAMG:  Solving for p, Initial residual = 0.0136921, Final residual = 0.000662341, No Iterations 10
GAMG:  Solving for p, Initial residual = 0.00752382, Final residual = 0.00037148, No Iterations 16
GAMG:  Solving for p, Initial residual = 0.00479334, Final residual = 0.000239133, No Iterations 20
time step continuity errors : sum local = 3.35615e-07, global = 3.05177e-08
GAMG:  Solving for p, Initial residual = 0.0106136, Final residual = 0.00052722, No Iterations 10
GAMG:  Solving for p, Initial residual = 0.00582909, Final residual = 0.000283448, No Iterations 18
GAMG:  Solving for p, Initial residual = 0.00401824, Final residual = 9.96659e-07, No Iterations 272
time step continuity errors : sum local = 1.38999e-09, global = 1.31055e-10
PIMPLE: Iteration 2
smoothSolver:  Solving for Ux, Initial residual = 0.00671631, Final residual = 4.24504e-08, No Iterations 2
smoothSolver:  Solving for Uy, Initial residual = 0.00263357, Final residual = 1.41905e-08, No Iterations 3
smoothSolver:  Solving for Uz, Initial residual = 0.00364346, Final residual = 7.86764e-09, No Iterations 3
GAMG:  Solving for p, Initial residual = 0.0133729, Final residual = 0.000615156, No Iterations 10
GAMG:  Solving for p, Initial residual = 0.00756209, Final residual = 0.000377638, No Iterations 12
GAMG:  Solving for p, Initial residual = 0.00406734, Final residual = 0.000199175, No Iterations 28
time step continuity errors : sum local = 2.75117e-07, global = 2.51087e-08
GAMG:  Solving for p, Initial residual = 0.0107417, Final residual = 0.000483619, No Iterations 10
GAMG:  Solving for p, Initial residual = 0.00570014, Final residual = 0.00027262, No Iterations 16
GAMG:  Solving for p, Initial residual = 0.00361747, Final residual = 9.94491e-07, No Iterations 270
time step continuity errors : sum local = 1.36412e-09, global = 1.28636e-10, cumulative = 2.50088e-09
smoothSolver:  Solving for omega, Initial residual = 0.00837768, Final residual = 2.26005e-08, No Iterations 2
smoothSolver:  Solving for k, Initial residual = 0.0901923, Final residual = 7.75712e-09, No Iterations 3
ExecutionTime = 172.608 s  ClockTime = 175 s

Courant Number mean: 0.0435709 max: 5.0076
deltaT = 0.35138
Time = 10.645482s

PIMPLE: Iteration 1
smoothSolver:  Solving for Ux, Initial residual = 0.0206844, Final residual = 1.12584e-05, No Iterations 1
smoothSolver:  Solving for Uy, Initial residual = 0.00787436, Final residual = 2.08127e-05, No Iterations 1
smoothSolver:  Solving for Uz, Initial residual = 0.0108305, Final residual = 2.76573e-05, No Iterations 1
GAMG:  Solving for p, Initial residual = 0.0140571, Final residual = 0.000679974, No Iterations 10
GAMG:  Solving for p, Initial residual = 0.00785994, Final residual = 0.000382181, No Iterations 16
GAMG:  Solving for p, Initial residual = 0.00496655, Final residual = 0.000246251, No Iterations 20
time step continuity errors : sum local = 3.26921e-07, global = 2.97194e-08
GAMG:  Solving for p, Initial residual = 0.0109029, Final residual = 0.000541388, No Iterations 10
GAMG:  Solving for p, Initial residual = 0.00608031, Final residual = 0.000291669, No Iterations 18
GAMG:  Solving for p, Initial residual = 0.00415964, Final residual = 9.8588e-07, No Iterations 274
time step continuity errors : sum local = 1.30039e-09, global = 1.22567e-10
PIMPLE: Iteration 2
smoothSolver:  Solving for Ux, Initial residual = 0.00627352, Final residual = 3.85128e-08, No Iterations 2
smoothSolver:  Solving for Uy, Initial residual = 0.00253656, Final residual = 1.31237e-08, No Iterations 3
smoothSolver:  Solving for Uz, Initial residual = 0.00356678, Final residual = 7.57068e-09, No Iterations 3
GAMG:  Solving for p, Initial residual = 0.0137302, Final residual = 0.000627718, No Iterations 10
GAMG:  Solving for p, Initial residual = 0.00781133, Final residual = 0.000385743, No Iterations 12
GAMG:  Solving for p, Initial residual = 0.00417643, Final residual = 0.000203544, No Iterations 28
time step continuity errors : sum local = 2.6587e-07, global = 2.42573e-08
GAMG:  Solving for p, Initial residual = 0.0110214, Final residual = 0.000493565, No Iterations 10
GAMG:  Solving for p, Initial residual = 0.00588449, Final residual = 0.000292096, No Iterations 14
GAMG:  Solving for p, Initial residual = 0.00346554, Final residual = 9.68015e-07, No Iterations 274
time step continuity errors : sum local = 1.25621e-09, global = 1.18418e-10, cumulative = 2.6193e-09
smoothSolver:  Solving for omega, Initial residual = 0.00789717, Final residual = 2.04976e-08, No Iterations 2
smoothSolver:  Solving for k, Initial residual = 0.0822764, Final residual = 6.58684e-09, No Iterations 3
ExecutionTime = 185.242 s  ClockTime = 188 s

Courant Number mean: 0.0434483 max: 5.00094
deltaT = 0.34827
Time = 10.993752s

PIMPLE: Iteration 1
smoothSolver:  Solving for Ux, Initial residual = 0.0193291, Final residual = 1.03803e-05, No Iterations 1
smoothSolver:  Solving for Uy, Initial residual = 0.00759047, Final residual = 1.96944e-05, No Iterations 1
smoothSolver:  Solving for Uz, Initial residual = 0.0105897, Final residual = 2.68612e-05, No Iterations 1
GAMG:  Solving for p, Initial residual = 0.0144637, Final residual = 0.000693974, No Iterations 10
GAMG:  Solving for p, Initial residual = 0.00810008, Final residual = 0.00039075, No Iterations 16
GAMG:  Solving for p, Initial residual = 0.00510147, Final residual = 0.000251965, No Iterations 20
time step continuity errors : sum local = 3.16177e-07, global = 2.87293e-08
GAMG:  Solving for p, Initial residual = 0.0112155, Final residual = 0.000552697, No Iterations 10
GAMG:  Solving for p, Initial residual = 0.00626351, Final residual = 0.000298267, No Iterations 18
GAMG:  Solving for p, Initial residual = 0.00427142, Final residual = 9.69331e-07, No Iterations 276
time step continuity errors : sum local = 1.20832e-09, global = 1.13851e-10
PIMPLE: Iteration 2
smoothSolver:  Solving for Ux, Initial residual = 0.00585719, Final residual = 3.49264e-08, No Iterations 2
smoothSolver:  Solving for Uy, Initial residual = 0.00244017, Final residual = 1.21643e-08, No Iterations 3
smoothSolver:  Solving for Uz, Initial residual = 0.00347176, Final residual = 7.23666e-09, No Iterations 3
GAMG:  Solving for p, Initial residual = 0.0140746, Final residual = 0.00063741, No Iterations 10
GAMG:  Solving for p, Initial residual = 0.00798386, Final residual = 0.000392017, No Iterations 12
GAMG:  Solving for p, Initial residual = 0.00425606, Final residual = 0.000206921, No Iterations 28
time step continuity errors : sum local = 2.55411e-07, global = 2.32965e-08
GAMG:  Solving for p, Initial residual = 0.0112878, Final residual = 0.000501294, No Iterations 10
GAMG:  Solving for p, Initial residual = 0.00601472, Final residual = 0.000296909, No Iterations 14
GAMG:  Solving for p, Initial residual = 0.00353149, Final residual = 9.85047e-07, No Iterations 274
time step continuity errors : sum local = 1.20785e-09, global = 1.1382e-10, cumulative = 2.73312e-09
smoothSolver:  Solving for omega, Initial residual = 0.00745633, Final residual = 1.8604e-08, No Iterations 2
smoothSolver:  Solving for k, Initial residual = 0.0753524, Final residual = 5.69587e-09, No Iterations 3
ExecutionTime = 197.906 s  ClockTime = 201 s

Courant Number mean: 0.0433077 max: 4.99113
deltaT = 0.34827
Time = 11.342022s

PIMPLE: Iteration 1
smoothSolver:  Solving for Ux, Initial residual = 0.0182101, Final residual = 9.7674e-06, No Iterations 1
smoothSolver:  Solving for Uy, Initial residual = 0.00736182, Final residual = 1.90189e-05, No Iterations 1
smoothSolver:  Solving for Uz, Initial residual = 0.0103941, Final residual = 2.65211e-05, No Iterations 1
GAMG:  Solving for p, Initial residual = 0.0151858, Final residual = 0.000734888, No Iterations 10
GAMG:  Solving for p, Initial residual = 0.00873036, Final residual = 0.000434406, No Iterations 14
GAMG:  Solving for p, Initial residual = 0.00509638, Final residual = 0.000252536, No Iterations 24
time step continuity errors : sum local = 3.03517e-07, global = 2.77007e-08
GAMG:  Solving for p, Initial residual = 0.0119716, Final residual = 0.000582081, No Iterations 10
GAMG:  Solving for p, Initial residual = 0.00668217, Final residual = 0.000330567, No Iterations 16
GAMG:  Solving for p, Initial residual = 0.00426089, Final residual = 9.72899e-07, No Iterations 280
time step continuity errors : sum local = 1.1607e-09, global = 1.09361e-10
PIMPLE: Iteration 2
smoothSolver:  Solving for Ux, Initial residual = 0.00551129, Final residual = 3.27087e-08, No Iterations 2
smoothSolver:  Solving for Uy, Initial residual = 0.00236991, Final residual = 1.17011e-08, No Iterations 3
smoothSolver:  Solving for Uz, Initial residual = 0.00339786, Final residual = 7.11106e-09, No Iterations 3
GAMG:  Solving for p, Initial residual = 0.0148148, Final residual = 0.000667443, No Iterations 10
GAMG:  Solving for p, Initial residual = 0.00842403, Final residual = 0.000410238, No Iterations 12
GAMG:  Solving for p, Initial residual = 0.00447916, Final residual = 0.000216754, No Iterations 28
time step continuity errors : sum local = 2.55903e-07, global = 2.33396e-08
GAMG:  Solving for p, Initial residual = 0.0118672, Final residual = 0.000524829, No Iterations 10
GAMG:  Solving for p, Initial residual = 0.00634326, Final residual = 0.000310706, No Iterations 14
GAMG:  Solving for p, Initial residual = 0.00371296, Final residual = 9.89807e-07, No Iterations 276
time step continuity errors : sum local = 1.16049e-09, global = 1.0935e-10, cumulative = 2.84247e-09
smoothSolver:  Solving for omega, Initial residual = 0.00710827, Final residual = 1.7418e-08, No Iterations 2
smoothSolver:  Solving for k, Initial residual = 0.0697833, Final residual = 5.2167e-09, No Iterations 3
ExecutionTime = 210.716 s  ClockTime = 214 s

Courant Number mean: 0.0435367 max: 5.02267
deltaT = 0.345161
Time = 11.687183s

PIMPLE: Iteration 1
smoothSolver:  Solving for Ux, Initial residual = 0.0169797, Final residual = 9.00082e-06, No Iterations 1
smoothSolver:  Solving for Uy, Initial residual = 0.00710056, Final residual = 1.80519e-05, No Iterations 1
smoothSolver:  Solving for Uz, Initial residual = 0.0100947, Final residual = 2.57889e-05, No Iterations 1
GAMG:  Solving for p, Initial residual = 0.0154915, Final residual = 0.000722169, No Iterations 10
GAMG:  Solving for p, Initial residual = 0.00854227, Final residual = 0.000425698, No Iterations 14
GAMG:  Solving for p, Initial residual = 0.00499916, Final residual = 0.000247513, No Iterations 24
time step continuity errors : sum local = 2.811e-07, global = 2.56411e-08
GAMG:  Solving for p, Initial residual = 0.0121878, Final residual = 0.000572143, No Iterations 10
GAMG:  Solving for p, Initial residual = 0.00654002, Final residual = 0.000324048, No Iterations 16
GAMG:  Solving for p, Initial residual = 0.00418127, Final residual = 9.95241e-07, No Iterations 278
time step continuity errors : sum local = 1.12214e-09, global = 1.05696e-10
PIMPLE: Iteration 2
smoothSolver:  Solving for Ux, Initial residual = 0.00513842, Final residual = 2.97681e-08, No Iterations 2
smoothSolver:  Solving for Uy, Initial residual = 0.00227794, Final residual = 1.08977e-08, No Iterations 3
smoothSolver:  Solving for Uz, Initial residual = 0.00328511, Final residual = 6.90378e-09, No Iterations 3
GAMG:  Solving for p, Initial residual = 0.0150226, Final residual = 0.000658281, No Iterations 10
GAMG:  Solving for p, Initial residual = 0.00829284, Final residual = 0.000403297, No Iterations 12
GAMG:  Solving for p, Initial residual = 0.00441197, Final residual = 0.000213142, No Iterations 28
time step continuity errors : sum local = 2.37837e-07, global = 2.16868e-08
GAMG:  Solving for p, Initial residual = 0.0120001, Final residual = 0.000517713, No Iterations 10
GAMG:  Solving for p, Initial residual = 0.00624203, Final residual = 0.000305549, No Iterations 14
GAMG:  Solving for p, Initial residual = 0.00365791, Final residual = 9.74948e-07, No Iterations 276
time step continuity errors : sum local = 1.0805e-09, global = 1.0178e-10, cumulative = 2.94425e-09
smoothSolver:  Solving for omega, Initial residual = 0.00673003, Final residual = 1.58994e-08, No Iterations 2
smoothSolver:  Solving for k, Initial residual = 0.0643306, Final residual = 4.62595e-09, No Iterations 3
ExecutionTime = 223.516 s  ClockTime = 226 s

Courant Number mean: 0.0433606 max: 5.00594
deltaT = 0.342079
Time = 12.029262s

PIMPLE: Iteration 1
smoothSolver:  Solving for Ux, Initial residual = 0.015849, Final residual = 8.27939e-06, No Iterations 1
smoothSolver:  Solving for Uy, Initial residual = 0.00680867, Final residual = 1.70758e-05, No Iterations 1
smoothSolver:  Solving for Uz, Initial residual = 0.00974725, Final residual = 2.47625e-05, No Iterations 1
GAMG:  Solving for p, Initial residual = 0.0156034, Final residual = 0.000729541, No Iterations 10
GAMG:  Solving for p, Initial residual = 0.00867855, Final residual = 0.000431381, No Iterations 14
GAMG:  Solving for p, Initial residual = 0.00507707, Final residual = 0.000250929, No Iterations 24
time step continuity errors : sum local = 2.68817e-07, global = 2.45128e-08
GAMG:  Solving for p, Initial residual = 0.0122901, Final residual = 0.000578312, No Iterations 10
GAMG:  Solving for p, Initial residual = 0.00664726, Final residual = 0.000328449, No Iterations 16
GAMG:  Solving for p, Initial residual = 0.00424679, Final residual = 9.69485e-07, No Iterations 280
time step continuity errors : sum local = 1.03101e-09, global = 9.70746e-11
PIMPLE: Iteration 2
smoothSolver:  Solving for Ux, Initial residual = 0.00479273, Final residual = 2.69921e-08, No Iterations 2
smoothSolver:  Solving for Uy, Initial residual = 0.00218114, Final residual = 1.00283e-08, No Iterations 3
smoothSolver:  Solving for Uz, Initial residual = 0.0031644, Final residual = 6.68417e-09, No Iterations 3
GAMG:  Solving for p, Initial residual = 0.0151562, Final residual = 0.000666105, No Iterations 10
GAMG:  Solving for p, Initial residual = 0.00842351, Final residual = 0.000409015, No Iterations 12
GAMG:  Solving for p, Initial residual = 0.00447834, Final residual = 0.000216232, No Iterations 28
time step continuity errors : sum local = 2.27529e-07, global = 2.07409e-08
GAMG:  Solving for p, Initial residual = 0.0121158, Final residual = 0.000524162, No Iterations 10
GAMG:  Solving for p, Initial residual = 0.00634215, Final residual = 0.000309992, No Iterations 14
GAMG:  Solving for p, Initial residual = 0.00371435, Final residual = 9.90318e-07, No Iterations 276
time step continuity errors : sum local = 1.03486e-09, global = 9.74446e-11, cumulative = 3.04169e-09
smoothSolver:  Solving for omega, Initial residual = 0.0063789, Final residual = 1.44548e-08, No Iterations 2
smoothSolver:  Solving for k, Initial residual = 0.0594765, Final residual = 4.02884e-09, No Iterations 3
ExecutionTime = 236.274 s  ClockTime = 239 s

Courant Number mean: 0.0431708 max: 4.98593
deltaT = 0.342079
Time = 12.37134s

PIMPLE: Iteration 1
smoothSolver:  Solving for Ux, Initial residual = 0.0149197, Final residual = 7.77855e-06, No Iterations 1
smoothSolver:  Solving for Uy, Initial residual = 0.00656926, Final residual = 1.64839e-05, No Iterations 1
smoothSolver:  Solving for Uz, Initial residual = 0.00949115, Final residual = 2.41744e-05, No Iterations 1
GAMG:  Solving for p, Initial residual = 0.0162389, Final residual = 0.00077363, No Iterations 10
GAMG:  Solving for p, Initial residual = 0.00935301, Final residual = 0.000457548, No Iterations 14
GAMG:  Solving for p, Initial residual = 0.00543326, Final residual = 0.000266574, No Iterations 24
time step continuity errors : sum local = 2.72637e-07, global = 2.48658e-08
GAMG:  Solving for p, Initial residual = 0.0127801, Final residual = 0.000613289, No Iterations 10
GAMG:  Solving for p, Initial residual = 0.00713876, Final residual = 0.000348492, No Iterations 16
GAMG:  Solving for p, Initial residual = 0.00453893, Final residual = 9.8855e-07, No Iterations 282
time step continuity errors : sum local = 1.00319e-09, global = 9.44489e-11
PIMPLE: Iteration 2
smoothSolver:  Solving for Ux, Initial residual = 0.00450545, Final residual = 2.52862e-08, No Iterations 2
smoothSolver:  Solving for Uy, Initial residual = 0.00210703, Final residual = 9.60379e-09, No Iterations 3
smoothSolver:  Solving for Uz, Initial residual = 0.00308271, Final residual = 6.73013e-09, No Iterations 3
GAMG:  Solving for p, Initial residual = 0.0157894, Final residual = 0.000707716, No Iterations 10
GAMG:  Solving for p, Initial residual = 0.00900188, Final residual = 0.000434965, No Iterations 12
GAMG:  Solving for p, Initial residual = 0.00478508, Final residual = 0.000230235, No Iterations 28
time step continuity errors : sum local = 2.31039e-07, global = 2.10575e-08
GAMG:  Solving for p, Initial residual = 0.0126372, Final residual = 0.000557089, No Iterations 10
GAMG:  Solving for p, Initial residual = 0.00677501, Final residual = 0.000329718, No Iterations 14
GAMG:  Solving for p, Initial residual = 0.00396633, Final residual = 9.70828e-07, No Iterations 280
time step continuity errors : sum local = 9.6706e-10, global = 9.10512e-11, cumulative = 3.13274e-09
smoothSolver:  Solving for omega, Initial residual = 0.0061036, Final residual = 1.36249e-08, No Iterations 2
smoothSolver:  Solving for k, Initial residual = 0.0555723, Final residual = 3.69182e-09, No Iterations 3
ExecutionTime = 249.176 s  ClockTime = 252 s

Courant Number mean: 0.043356 max: 5.00764
deltaT = 0.338997
Time = 12.710337s

PIMPLE: Iteration 1
smoothSolver:  Solving for Ux, Initial residual = 0.0138904, Final residual = 7.15126e-06, No Iterations 1
smoothSolver:  Solving for Uy, Initial residual = 0.00630713, Final residual = 1.56588e-05, No Iterations 1
smoothSolver:  Solving for Uz, Initial residual = 0.00920676, Final residual = 2.32364e-05, No Iterations 1
GAMG:  Solving for p, Initial residual = 0.0165288, Final residual = 0.000772984, No Iterations 10
GAMG:  Solving for p, Initial residual = 0.00927173, Final residual = 0.000455944, No Iterations 14
GAMG:  Solving for p, Initial residual = 0.00542001, Final residual = 0.000265752, No Iterations 24
time step continuity errors : sum local = 2.55973e-07, global = 2.33317e-08
GAMG:  Solving for p, Initial residual = 0.0130146, Final residual = 0.000613214, No Iterations 10
GAMG:  Solving for p, Initial residual = 0.00708589, Final residual = 0.000347462, No Iterations 16
GAMG:  Solving for p, Initial residual = 0.00453048, Final residual = 9.87199e-07, No Iterations 282
time step continuity errors : sum local = 9.43526e-10, global = 8.88006e-11
PIMPLE: Iteration 2
smoothSolver:  Solving for Ux, Initial residual = 0.00419286, Final residual = 2.29801e-08, No Iterations 2
smoothSolver:  Solving for Uy, Initial residual = 0.00201758, Final residual = 8.9347e-09, No Iterations 3
smoothSolver:  Solving for Uz, Initial residual = 0.00298267, Final residual = 6.62626e-09, No Iterations 3
GAMG:  Solving for p, Initial residual = 0.0160354, Final residual = 0.000709708, No Iterations 10
GAMG:  Solving for p, Initial residual = 0.00897848, Final residual = 0.000435007, No Iterations 12
GAMG:  Solving for p, Initial residual = 0.00478863, Final residual = 0.00023035, No Iterations 28
time step continuity errors : sum local = 2.17683e-07, global = 1.98319e-08
GAMG:  Solving for p, Initial residual = 0.0128268, Final residual = 0.000558967, No Iterations 10
GAMG:  Solving for p, Initial residual = 0.00675876, Final residual = 0.000329891, No Iterations 14
GAMG:  Solving for p, Initial residual = 0.00397169, Final residual = 9.72828e-07, No Iterations 280
time step continuity errors : sum local = 9.12576e-10, global = 8.58913e-11, cumulative = 3.21863e-09
smoothSolver:  Solving for omega, Initial residual = 0.00579863, Final residual = 1.25243e-08, No Iterations 2
smoothSolver:  Solving for k, Initial residual = 0.0516479, Final residual = 3.26887e-09, No Iterations 3
ExecutionTime = 261.999 s  ClockTime = 265 s

Courant Number mean: 0.0431371 max: 4.98113
deltaT = 0.338997
Time = 13.049334s

PIMPLE: Iteration 1
smoothSolver:  Solving for Ux, Initial residual = 0.0130475, Final residual = 6.70072e-06, No Iterations 1
smoothSolver:  Solving for Uy, Initial residual = 0.00608325, Final residual = 1.51292e-05, No Iterations 1
smoothSolver:  Solving for Uz, Initial residual = 0.00899842, Final residual = 2.2588e-05, No Iterations 1
GAMG:  Solving for p, Initial residual = 0.0171223, Final residual = 0.000822196, No Iterations 10
GAMG:  Solving for p, Initial residual = 0.00998828, Final residual = 0.00048595, No Iterations 14
GAMG:  Solving for p, Initial residual = 0.00581138, Final residual = 0.000283637, No Iterations 24
time step continuity errors : sum local = 2.60156e-07, global = 2.37142e-08
GAMG:  Solving for p, Initial residual = 0.0134903, Final residual = 0.000652549, No Iterations 10
GAMG:  Solving for p, Initial residual = 0.00761232, Final residual = 0.000370471, No Iterations 16
GAMG:  Solving for p, Initial residual = 0.00485456, Final residual = 9.70571e-07, No Iterations 286
time step continuity errors : sum local = 8.82892e-10, global = 8.30841e-11
PIMPLE: Iteration 2
smoothSolver:  Solving for Ux, Initial residual = 0.00393237, Final residual = 2.14585e-08, No Iterations 2
smoothSolver:  Solving for Uy, Initial residual = 0.00194793, Final residual = 8.57591e-09, No Iterations 3
smoothSolver:  Solving for Uz, Initial residual = 0.00291324, Final residual = 6.64832e-09, No Iterations 3
GAMG:  Solving for p, Initial residual = 0.0166705, Final residual = 0.00074809, No Iterations 10
GAMG:  Solving for p, Initial residual = 0.00951364, Final residual = 0.000459556, No Iterations 12
GAMG:  Solving for p, Initial residual = 0.00507124, Final residual = 0.000243534, No Iterations 28
time step continuity errors : sum local = 2.18971e-07, global = 1.99462e-08
GAMG:  Solving for p, Initial residual = 0.0133511, Final residual = 0.000589466, No Iterations 10
GAMG:  Solving for p, Initial residual = 0.00715967, Final residual = 0.000348565, No Iterations 14
GAMG:  Solving for p, Initial residual = 0.00420531, Final residual = 9.86822e-07, No Iterations 282
time step continuity errors : sum local = 8.80407e-10, global = 8.28537e-11, cumulative = 3.30149e-09
smoothSolver:  Solving for omega, Initial residual = 0.00556023, Final residual = 1.18551e-08, No Iterations 2
smoothSolver:  Solving for k, Initial residual = 0.0484912, Final residual = 3.01128e-09, No Iterations 3
ExecutionTime = 274.977 s  ClockTime = 278 s

Courant Number mean: 0.0432979 max: 4.99711
deltaT = 0.338997
Time = 13.388331s

PIMPLE: Iteration 1
smoothSolver:  Solving for Ux, Initial residual = 0.0122237, Final residual = 6.278e-06, No Iterations 1
smoothSolver:  Solving for Uy, Initial residual = 0.00588234, Final residual = 1.46456e-05, No Iterations 1
smoothSolver:  Solving for Uz, Initial residual = 0.00880762, Final residual = 2.20513e-05, No Iterations 1
GAMG:  Solving for p, Initial residual = 0.0178104, Final residual = 0.000847534, No Iterations 10
GAMG:  Solving for p, Initial residual = 0.0103648, Final residual = 0.000500409, No Iterations 14
GAMG:  Solving for p, Initial residual = 0.0060122, Final residual = 0.000292345, No Iterations 24
time step continuity errors : sum local = 2.55359e-07, global = 2.32754e-08
GAMG:  Solving for p, Initial residual = 0.014002, Final residual = 0.000672782, No Iterations 10
GAMG:  Solving for p, Initial residual = 0.00787783, Final residual = 0.000381618, No Iterations 16
GAMG:  Solving for p, Initial residual = 0.00502023, Final residual = 9.60483e-07, No Iterations 288
time step continuity errors : sum local = 8.31862e-10, global = 7.82775e-11
PIMPLE: Iteration 2
smoothSolver:  Solving for Ux, Initial residual = 0.00368094, Final residual = 2.00978e-08, No Iterations 2
smoothSolver:  Solving for Uy, Initial residual = 0.00188257, Final residual = 8.24063e-09, No Iterations 3
smoothSolver:  Solving for Uz, Initial residual = 0.00284673, Final residual = 6.70848e-09, No Iterations 3
GAMG:  Solving for p, Initial residual = 0.0172741, Final residual = 0.000767515, No Iterations 10
GAMG:  Solving for p, Initial residual = 0.00979295, Final residual = 0.000471304, No Iterations 12
GAMG:  Solving for p, Initial residual = 0.00521578, Final residual = 0.000249916, No Iterations 28
time step continuity errors : sum local = 2.13898e-07, global = 1.94817e-08
GAMG:  Solving for p, Initial residual = 0.0138115, Final residual = 0.00060488, No Iterations 10
GAMG:  Solving for p, Initial residual = 0.00736335, Final residual = 0.000357522, No Iterations 14
GAMG:  Solving for p, Initial residual = 0.00432376, Final residual = 9.7191e-07, No Iterations 284
time step continuity errors : sum local = 8.25226e-10, global = 7.76555e-11, cumulative = 3.37914e-09
smoothSolver:  Solving for omega, Initial residual = 0.00533731, Final residual = 1.12803e-08, No Iterations 2
smoothSolver:  Solving for k, Initial residual = 0.045625, Final residual = 2.81808e-09, No Iterations 3
ExecutionTime = 287.966 s  ClockTime = 291 s

Courant Number mean: 0.0434485 max: 5.0107
deltaT = 0.335887
Time = 13.724218s

PIMPLE: Iteration 1
smoothSolver:  Solving for Ux, Initial residual = 0.0113342, Final residual = 5.74503e-06, No Iterations 1
smoothSolver:  Solving for Uy, Initial residual = 0.00563541, Final residual = 1.38829e-05, No Iterations 1
smoothSolver:  Solving for Uz, Initial residual = 0.00853143, Final residual = 2.10578e-05, No Iterations 1
GAMG:  Solving for p, Initial residual = 0.0178372, Final residual = 0.000836409, No Iterations 10
GAMG:  Solving for p, Initial residual = 0.0101754, Final residual = 0.000495014, No Iterations 14
GAMG:  Solving for p, Initial residual = 0.00593887, Final residual = 0.000289203, No Iterations 24
time step continuity errors : sum local = 2.37091e-07, global = 2.15984e-08
GAMG:  Solving for p, Initial residual = 0.0140582, Final residual = 0.000664357, No Iterations 10
GAMG:  Solving for p, Initial residual = 0.00776559, Final residual = 0.000377587, No Iterations 16
GAMG:  Solving for p, Initial residual = 0.00496256, Final residual = 9.91426e-07, No Iterations 286
time step continuity errors : sum local = 8.05973e-10, global = 7.58126e-11
PIMPLE: Iteration 2
smoothSolver:  Solving for Ux, Initial residual = 0.00341234, Final residual = 1.81688e-08, No Iterations 2
smoothSolver:  Solving for Uy, Initial residual = 0.00179868, Final residual = 7.68431e-09, No Iterations 3
smoothSolver:  Solving for Uz, Initial residual = 0.00274963, Final residual = 6.56548e-09, No Iterations 3
GAMG:  Solving for p, Initial residual = 0.0173335, Final residual = 0.000759285, No Iterations 10
GAMG:  Solving for p, Initial residual = 0.00967991, Final residual = 0.000467005, No Iterations 12
GAMG:  Solving for p, Initial residual = 0.00516095, Final residual = 0.000247612, No Iterations 28
time step continuity errors : sum local = 1.98911e-07, global = 1.81125e-08
GAMG:  Solving for p, Initial residual = 0.0138587, Final residual = 0.000598659, No Iterations 10
GAMG:  Solving for p, Initial residual = 0.00728754, Final residual = 0.000354368, No Iterations 14
GAMG:  Solving for p, Initial residual = 0.00428133, Final residual = 9.64249e-07, No Iterations 284
time step continuity errors : sum local = 7.68506e-10, global = 7.22904e-11, cumulative = 3.45143e-09
smoothSolver:  Solving for omega, Initial residual = 0.00508427, Final residual = 1.04018e-08, No Iterations 2
smoothSolver:  Solving for k, Initial residual = 0.0426643, Final residual = 2.6265e-09, No Iterations 3
ExecutionTime = 301.022 s  ClockTime = 304 s

Courant Number mean: 0.043189 max: 4.97577
deltaT = 0.335887
Time = 14.060105s

PIMPLE: Iteration 1
smoothSolver:  Solving for Ux, Initial residual = 0.0106085, Final residual = 5.36207e-06, No Iterations 1
smoothSolver:  Solving for Uy, Initial residual = 0.00542114, Final residual = 1.33996e-05, No Iterations 1
smoothSolver:  Solving for Uz, Initial residual = 0.00830918, Final residual = 2.03309e-05, No Iterations 1
GAMG:  Solving for p, Initial residual = 0.0183166, Final residual = 0.000876188, No Iterations 10
GAMG:  Solving for p, Initial residual = 0.0108528, Final residual = 0.000521008, No Iterations 14
GAMG:  Solving for p, Initial residual = 0.00628028, Final residual = 0.00030467, No Iterations 24
time step continuity errors : sum local = 2.3712e-07, global = 2.16036e-08
GAMG:  Solving for p, Initial residual = 0.0144278, Final residual = 0.000696079, No Iterations 10
GAMG:  Solving for p, Initial residual = 0.00825702, Final residual = 0.000397426, No Iterations 16
GAMG:  Solving for p, Initial residual = 0.00524372, Final residual = 9.61843e-07, No Iterations 290
time step continuity errors : sum local = 7.41995e-10, global = 6.97846e-11
PIMPLE: Iteration 2
smoothSolver:  Solving for Ux, Initial residual = 0.00318951, Final residual = 1.6906e-08, No Iterations 2
smoothSolver:  Solving for Uy, Initial residual = 0.00173291, Final residual = 7.48196e-09, No Iterations 3
smoothSolver:  Solving for Uz, Initial residual = 0.00267576, Final residual = 6.56011e-09, No Iterations 3
GAMG:  Solving for p, Initial residual = 0.017861, Final residual = 0.000788468, No Iterations 10
GAMG:  Solving for p, Initial residual = 0.0101655, Final residual = 0.000486819, No Iterations 12
GAMG:  Solving for p, Initial residual = 0.00539447, Final residual = 0.000258208, No Iterations 28
time step continuity errors : sum local = 1.96791e-07, global = 1.79153e-08
GAMG:  Solving for p, Initial residual = 0.0142752, Final residual = 0.000621751, No Iterations 10
GAMG:  Solving for p, Initial residual = 0.00764627, Final residual = 0.000369384, No Iterations 14
GAMG:  Solving for p, Initial residual = 0.0044723, Final residual = 9.64581e-07, No Iterations 286
time step continuity errors : sum local = 7.29122e-10, global = 6.85754e-11, cumulative = 3.52001e-09
smoothSolver:  Solving for omega, Initial residual = 0.00488835, Final residual = 9.84499e-09, No Iterations 2
smoothSolver:  Solving for k, Initial residual = 0.0402949, Final residual = 2.34429e-09, No Iterations 3
ExecutionTime = 314.354 s  ClockTime = 317 s

Courant Number mean: 0.0433188 max: 4.98421
deltaT = 0.335887
Time = 14.395992s

PIMPLE: Iteration 1
smoothSolver:  Solving for Ux, Initial residual = 0.00990582, Final residual = 5.00876e-06, No Iterations 1
smoothSolver:  Solving for Uy, Initial residual = 0.00522898, Final residual = 1.2974e-05, No Iterations 1
smoothSolver:  Solving for Uz, Initial residual = 0.00809134, Final residual = 1.97138e-05, No Iterations 1
GAMG:  Solving for p, Initial residual = 0.0189312, Final residual = 0.00089319, No Iterations 10
GAMG:  Solving for p, Initial residual = 0.0111799, Final residual = 0.000555307, No Iterations 12
GAMG:  Solving for p, Initial residual = 0.00596887, Final residual = 0.000294362, No Iterations 28
time step continuity errors : sum local = 2.17855e-07, global = 1.98389e-08
GAMG:  Solving for p, Initial residual = 0.0151111, Final residual = 0.000705915, No Iterations 10
GAMG:  Solving for p, Initial residual = 0.00841019, Final residual = 0.000402537, No Iterations 16
GAMG:  Solving for p, Initial residual = 0.00532751, Final residual = 9.7459e-07, No Iterations 290
time step continuity errors : sum local = 7.13879e-10, global = 6.71343e-11
PIMPLE: Iteration 2
smoothSolver:  Solving for Ux, Initial residual = 0.00297643, Final residual = 1.57933e-08, No Iterations 2
smoothSolver:  Solving for Uy, Initial residual = 0.00167061, Final residual = 7.27111e-09, No Iterations 3
smoothSolver:  Solving for Uz, Initial residual = 0.00260027, Final residual = 6.72266e-09, No Iterations 3
GAMG:  Solving for p, Initial residual = 0.0183498, Final residual = 0.000800426, No Iterations 10
GAMG:  Solving for p, Initial residual = 0.0103818, Final residual = 0.00051658, No Iterations 10
GAMG:  Solving for p, Initial residual = 0.00507327, Final residual = 0.00024843, No Iterations 32
time step continuity errors : sum local = 1.80007e-07, global = 1.64235e-08
GAMG:  Solving for p, Initial residual = 0.0148678, Final residual = 0.000737584, No Iterations 8
GAMG:  Solving for p, Initial residual = 0.00700925, Final residual = 0.000350413, No Iterations 18
GAMG:  Solving for p, Initial residual = 0.00535447, Final residual = 9.79109e-07, No Iterations 284
time step continuity errors : sum local = 7.02627e-10, global = 6.60783e-11, cumulative = 3.58609e-09
smoothSolver:  Solving for omega, Initial residual = 0.00470458, Final residual = 9.38498e-09, No Iterations 2
smoothSolver:  Solving for k, Initial residual = 0.0381263, Final residual = 2.25925e-09, No Iterations 3
ExecutionTime = 327.57 s  ClockTime = 330 s

Courant Number mean: 0.0434401 max: 4.99048
deltaT = 0.335887
Time = 14.731879s

PIMPLE: Iteration 1
smoothSolver:  Solving for Ux, Initial residual = 0.00924071, Final residual = 4.67448e-06, No Iterations 1
smoothSolver:  Solving for Uy, Initial residual = 0.00503997, Final residual = 1.25655e-05, No Iterations 1
smoothSolver:  Solving for Uz, Initial residual = 0.00786646, Final residual = 1.90825e-05, No Iterations 1
GAMG:  Solving for p, Initial residual = 0.0192384, Final residual = 0.000906831, No Iterations 10
GAMG:  Solving for p, Initial residual = 0.0114773, Final residual = 0.000562535, No Iterations 12
GAMG:  Solving for p, Initial residual = 0.0060819, Final residual = 0.000298328, No Iterations 28
time step continuity errors : sum local = 2.09598e-07, global = 1.90839e-08
GAMG:  Solving for p, Initial residual = 0.0153108, Final residual = 0.000716391, No Iterations 10
GAMG:  Solving for p, Initial residual = 0.00859684, Final residual = 0.000427485, No Iterations 14
GAMG:  Solving for p, Initial residual = 0.00506596, Final residual = 9.79634e-07, No Iterations 292
time step continuity errors : sum local = 6.81723e-10, global = 6.41047e-11
PIMPLE: Iteration 2
smoothSolver:  Solving for Ux, Initial residual = 0.00277527, Final residual = 1.47512e-08, No Iterations 2
smoothSolver:  Solving for Uy, Initial residual = 0.00161087, Final residual = 7.0087e-09, No Iterations 3
smoothSolver:  Solving for Uz, Initial residual = 0.00252456, Final residual = 6.76855e-09, No Iterations 3
GAMG:  Solving for p, Initial residual = 0.0186958, Final residual = 0.000813564, No Iterations 10
GAMG:  Solving for p, Initial residual = 0.0106026, Final residual = 0.000524232, No Iterations 10
GAMG:  Solving for p, Initial residual = 0.00516966, Final residual = 0.000252147, No Iterations 32
time step continuity errors : sum local = 1.73399e-07, global = 1.58166e-08
GAMG:  Solving for p, Initial residual = 0.0151238, Final residual = 0.000749538, No Iterations 8
GAMG:  Solving for p, Initial residual = 0.00714522, Final residual = 0.000355577, No Iterations 18
GAMG:  Solving for p, Initial residual = 0.00544799, Final residual = 9.93914e-07, No Iterations 284
time step continuity errors : sum local = 6.76845e-10, global = 6.36465e-11, cumulative = 3.64973e-09
smoothSolver:  Solving for omega, Initial residual = 0.00453108, Final residual = 8.93083e-09, No Iterations 2
smoothSolver:  Solving for k, Initial residual = 0.0361311, Final residual = 2.02017e-09, No Iterations 3
ExecutionTime = 340.716 s  ClockTime = 344 s

Courant Number mean: 0.043553 max: 4.99493
deltaT = 0.335887
Time = 15.067766s

PIMPLE: Iteration 1
smoothSolver:  Solving for Ux, Initial residual = 0.00861452, Final residual = 4.35905e-06, No Iterations 1
smoothSolver:  Solving for Uy, Initial residual = 0.00485194, Final residual = 1.21651e-05, No Iterations 1
smoothSolver:  Solving for Uz, Initial residual = 0.00763246, Final residual = 1.84721e-05, No Iterations 1
GAMG:  Solving for p, Initial residual = 0.0194985, Final residual = 0.000926929, No Iterations 10
GAMG:  Solving for p, Initial residual = 0.0117511, Final residual = 0.000574923, No Iterations 12
GAMG:  Solving for p, Initial residual = 0.0062319, Final residual = 0.000305028, No Iterations 28
time step continuity errors : sum local = 2.03295e-07, global = 1.85052e-08
GAMG:  Solving for p, Initial residual = 0.0155225, Final residual = 0.000732616, No Iterations 10
GAMG:  Solving for p, Initial residual = 0.00880597, Final residual = 0.000437019, No Iterations 14
GAMG:  Solving for p, Initial residual = 0.00519044, Final residual = 9.61959e-07, No Iterations 294
time step continuity errors : sum local = 6.34899e-10, global = 5.96945e-11
PIMPLE: Iteration 2
smoothSolver:  Solving for Ux, Initial residual = 0.00258596, Final residual = 1.3758e-08, No Iterations 2
smoothSolver:  Solving for Uy, Initial residual = 0.00154737, Final residual = 6.75581e-09, No Iterations 3
smoothSolver:  Solving for Uz, Initial residual = 0.00244654, Final residual = 9.81957e-08, No Iterations 2
GAMG:  Solving for p, Initial residual = 0.0189734, Final residual = 0.000830106, No Iterations 10
GAMG:  Solving for p, Initial residual = 0.0108074, Final residual = 0.00053473, No Iterations 10
GAMG:  Solving for p, Initial residual = 0.00527617, Final residual = 0.000257219, No Iterations 32
time step continuity errors : sum local = 1.67763e-07, global = 1.53001e-08
GAMG:  Solving for p, Initial residual = 0.0153521, Final residual = 0.000764966, No Iterations 8
GAMG:  Solving for p, Initial residual = 0.00728493, Final residual = 0.000362716, No Iterations 18
GAMG:  Solving for p, Initial residual = 0.00556355, Final residual = 9.73687e-07, No Iterations 286
time step continuity errors : sum local = 6.28749e-10, global = 5.91171e-11, cumulative = 3.70885e-09
smoothSolver:  Solving for omega, Initial residual = 0.00436697, Final residual = 8.50689e-09, No Iterations 2
smoothSolver:  Solving for k, Initial residual = 0.0342897, Final residual = 1.95526e-09, No Iterations 3
ExecutionTime = 353.933 s  ClockTime = 357 s

Courant Number mean: 0.043658 max: 4.99798
deltaT = 0.335887
Time = 15.403652s

PIMPLE: Iteration 1
smoothSolver:  Solving for Ux, Initial residual = 0.00803479, Final residual = 4.05913e-06, No Iterations 1
smoothSolver:  Solving for Uy, Initial residual = 0.00465068, Final residual = 1.17862e-05, No Iterations 1
smoothSolver:  Solving for Uz, Initial residual = 0.00740198, Final residual = 1.78472e-05, No Iterations 1
GAMG:  Solving for p, Initial residual = 0.0197978, Final residual = 0.000944722, No Iterations 10
GAMG:  Solving for p, Initial residual = 0.0119655, Final residual = 0.00058594, No Iterations 12
GAMG:  Solving for p, Initial residual = 0.00635894, Final residual = 0.000310987, No Iterations 28
time step continuity errors : sum local = 1.96493e-07, global = 1.78831e-08
GAMG:  Solving for p, Initial residual = 0.0157709, Final residual = 0.000747037, No Iterations 10
GAMG:  Solving for p, Initial residual = 0.00897577, Final residual = 0.000445515, No Iterations 14
GAMG:  Solving for p, Initial residual = 0.00529715, Final residual = 9.81593e-07, No Iterations 294
time step continuity errors : sum local = 6.14074e-10, global = 5.77304e-11
PIMPLE: Iteration 2
smoothSolver:  Solving for Ux, Initial residual = 0.00241317, Final residual = 1.28352e-08, No Iterations 2
smoothSolver:  Solving for Uy, Initial residual = 0.00148225, Final residual = 6.47631e-09, No Iterations 3
smoothSolver:  Solving for Uz, Initial residual = 0.00237045, Final residual = 9.676e-08, No Iterations 2
GAMG:  Solving for p, Initial residual = 0.0192947, Final residual = 0.000841865, No Iterations 10
GAMG:  Solving for p, Initial residual = 0.0109477, Final residual = 0.00054212, No Iterations 10
GAMG:  Solving for p, Initial residual = 0.00535035, Final residual = 0.000260748, No Iterations 32
time step continuity errors : sum local = 1.61197e-07, global = 1.46994e-08
GAMG:  Solving for p, Initial residual = 0.0156059, Final residual = 0.000775955, No Iterations 8
GAMG:  Solving for p, Initial residual = 0.00738, Final residual = 0.000367705, No Iterations 18
GAMG:  Solving for p, Initial residual = 0.00564562, Final residual = 9.87586e-07, No Iterations 286
time step continuity errors : sum local = 6.04404e-10, global = 5.68216e-11, cumulative = 3.76567e-09
smoothSolver:  Solving for omega, Initial residual = 0.00421162, Final residual = 8.10444e-09, No Iterations 2
smoothSolver:  Solving for k, Initial residual = 0.0325864, Final residual = 1.83907e-09, No Iterations 3
ExecutionTime = 367.187 s  ClockTime = 370 s

Courant Number mean: 0.0437557 max: 4.99967
deltaT = 0.335887
Time = 15.739539s

PIMPLE: Iteration 1
smoothSolver:  Solving for Ux, Initial residual = 0.00749777, Final residual = 3.77469e-06, No Iterations 1
smoothSolver:  Solving for Uy, Initial residual = 0.0044464, Final residual = 1.14213e-05, No Iterations 1
smoothSolver:  Solving for Uz, Initial residual = 0.00717831, Final residual = 1.71917e-05, No Iterations 1
GAMG:  Solving for p, Initial residual = 0.0201511, Final residual = 0.000955102, No Iterations 10
GAMG:  Solving for p, Initial residual = 0.0121368, Final residual = 0.000592321, No Iterations 12
GAMG:  Solving for p, Initial residual = 0.00644075, Final residual = 0.000314407, No Iterations 28
time step continuity errors : sum local = 1.88225e-07, global = 1.7128e-08
GAMG:  Solving for p, Initial residual = 0.0160413, Final residual = 0.00075529, No Iterations 10
GAMG:  Solving for p, Initial residual = 0.00909937, Final residual = 0.000450373, No Iterations 14
GAMG:  Solving for p, Initial residual = 0.00536402, Final residual = 9.92864e-07, No Iterations 294
time step continuity errors : sum local = 5.88471e-10, global = 5.53166e-11
PIMPLE: Iteration 2
smoothSolver:  Solving for Ux, Initial residual = 0.00225074, Final residual = 1.19526e-08, No Iterations 2
smoothSolver:  Solving for Uy, Initial residual = 0.0014159, Final residual = 6.11406e-09, No Iterations 3
smoothSolver:  Solving for Uz, Initial residual = 0.00230689, Final residual = 9.42046e-08, No Iterations 2
GAMG:  Solving for p, Initial residual = 0.0196424, Final residual = 0.000837597, No Iterations 10
GAMG:  Solving for p, Initial residual = 0.0109456, Final residual = 0.000538629, No Iterations 10
GAMG:  Solving for p, Initial residual = 0.00533066, Final residual = 0.000258981, No Iterations 32
time step continuity errors : sum local = 1.51761e-07, global = 1.38365e-08
GAMG:  Solving for p, Initial residual = 0.0158325, Final residual = 0.000771772, No Iterations 8
GAMG:  Solving for p, Initial residual = 0.00736834, Final residual = 0.000365186, No Iterations 18
GAMG:  Solving for p, Initial residual = 0.00561756, Final residual = 9.81136e-07, No Iterations 286
time step continuity errors : sum local = 5.69218e-10, global = 5.35051e-11, cumulative = 3.81918e-09
smoothSolver:  Solving for omega, Initial residual = 0.00406448, Final residual = 7.72692e-09, No Iterations 2
smoothSolver:  Solving for k, Initial residual = 0.0310073, Final residual = 1.73119e-09, No Iterations 3
bounding k, min: -0.00487562 max: 5.19374 average: 1.53982
ExecutionTime = 380.439 s  ClockTime = 383 s

Courant Number mean: 0.0438467 max: 5.00006
deltaT = 0.335887
Time = 16.075426s

PIMPLE: Iteration 1
smoothSolver:  Solving for Ux, Initial residual = 0.00699487, Final residual = 3.50864e-06, No Iterations 1
smoothSolver:  Solving for Uy, Initial residual = 0.00424276, Final residual = 1.10626e-05, No Iterations 1
smoothSolver:  Solving for Uz, Initial residual = 0.00698589, Final residual = 1.65337e-05, No Iterations 1
GAMG:  Solving for p, Initial residual = 0.0204828, Final residual = 0.000947094, No Iterations 10
GAMG:  Solving for p, Initial residual = 0.0121656, Final residual = 0.000587395, No Iterations 12
GAMG:  Solving for p, Initial residual = 0.00641011, Final residual = 0.00031176, No Iterations 28
time step continuity errors : sum local = 1.76939e-07, global = 1.60985e-08
GAMG:  Solving for p, Initial residual = 0.0162431, Final residual = 0.000748483, No Iterations 10
GAMG:  Solving for p, Initial residual = 0.00909578, Final residual = 0.000446475, No Iterations 14
GAMG:  Solving for p, Initial residual = 0.00533324, Final residual = 9.8451e-07, No Iterations 294
time step continuity errors : sum local = 5.53244e-10, global = 5.19967e-11
PIMPLE: Iteration 2
smoothSolver:  Solving for Ux, Initial residual = 0.00209949, Final residual = 1.11309e-08, No Iterations 2
[...]
time step continuity errors : sum local = 7.72048e-09, global = 8.47991e-10
GAMG:  Solving for p, Initial residual = 0.00300341, Final residual = 0.000138868, No Iterations 6
GAMG:  Solving for p, Initial residual = 0.00158681, Final residual = 7.92056e-05, No Iterations 8
GAMG:  Solving for p, Initial residual = 0.000664051, Final residual = 9.97114e-07, No Iterations 194
time step continuity errors : sum local = 1.67863e-10, global = 1.61344e-11
PIMPLE: Iteration 2
smoothSolver:  Solving for Ux, Initial residual = 8.64039e-05, Final residual = 5.64875e-09, No Iterations 2
smoothSolver:  Solving for Uy, Initial residual = 0.000584186, Final residual = 4.95798e-08, No Iterations 2
smoothSolver:  Solving for Uz, Initial residual = 0.00159694, Final residual = 7.48302e-09, No Iterations 3
GAMG:  Solving for p, Initial residual = 0.00410411, Final residual = 0.000191524, No Iterations 5
GAMG:  Solving for p, Initial residual = 0.00227016, Final residual = 0.000109063, No Iterations 5
GAMG:  Solving for p, Initial residual = 0.000728706, Final residual = 3.58954e-05, No Iterations 24
time step continuity errors : sum local = 6.0344e-09, global = -7.4839e-10
GAMG:  Solving for p, Initial residual = 0.00291867, Final residual = 0.000136911, No Iterations 5
GAMG:  Solving for p, Initial residual = 0.0015491, Final residual = 7.51676e-05, No Iterations 6
GAMG:  Solving for p, Initial residual = 0.000531598, Final residual = 9.97835e-07, No Iterations 185
time step continuity errors : sum local = 1.67744e-10, global = -1.64818e-11, cumulative = 1.55344e-09
smoothSolver:  Solving for omega, Initial residual = 0.000205227, Final residual = 6.34344e-09, No Iterations 2
smoothSolver:  Solving for k, Initial residual = 0.00040602, Final residual = 2.37052e-08, No Iterations 2
ExecutionTime = 3452.5 s  ClockTime = 3459 s

Courant Number mean: 0.0814566 max: 4.79306
deltaT = 0.647555
Time = 196.114671s

PIMPLE: Iteration 1
smoothSolver:  Solving for Ux, Initial residual = 0.000273413, Final residual = 6.85888e-07, No Iterations 1
smoothSolver:  Solving for Uy, Initial residual = 0.00184348, Final residual = 4.51935e-06, No Iterations 1
smoothSolver:  Solving for Uz, Initial residual = 0.00509249, Final residual = 1.01605e-05, No Iterations 1
GAMG:  Solving for p, Initial residual = 0.00415231, Final residual = 0.000193547, No Iterations 6
GAMG:  Solving for p, Initial residual = 0.00243561, Final residual = 0.00011495, No Iterations 7
GAMG:  Solving for p, Initial residual = 0.000914986, Final residual = 4.56307e-05, No Iterations 24
time step continuity errors : sum local = 7.67404e-09, global = 8.42283e-10
GAMG:  Solving for p, Initial residual = 0.00299222, Final residual = 0.000138307, No Iterations 6
GAMG:  Solving for p, Initial residual = 0.0015801, Final residual = 7.89371e-05, No Iterations 8
GAMG:  Solving for p, Initial residual = 0.000662485, Final residual = 9.91762e-07, No Iterations 194
time step continuity errors : sum local = 1.66804e-10, global = 1.60303e-11
PIMPLE: Iteration 2
smoothSolver:  Solving for Ux, Initial residual = 8.61408e-05, Final residual = 5.62023e-09, No Iterations 2
smoothSolver:  Solving for Uy, Initial residual = 0.000583514, Final residual = 4.92289e-08, No Iterations 2
smoothSolver:  Solving for Uz, Initial residual = 0.00159434, Final residual = 7.44415e-09, No Iterations 3
GAMG:  Solving for p, Initial residual = 0.00407684, Final residual = 0.000191999, No Iterations 5
GAMG:  Solving for p, Initial residual = 0.00238969, Final residual = 0.000103557, No Iterations 5
GAMG:  Solving for p, Initial residual = 0.00078647, Final residual = 3.88681e-05, No Iterations 16
time step continuity errors : sum local = 6.52767e-09, global = 8.07448e-10
GAMG:  Solving for p, Initial residual = 0.00287527, Final residual = 0.000135501, No Iterations 5
GAMG:  Solving for p, Initial residual = 0.00155006, Final residual = 7.42615e-05, No Iterations 6
GAMG:  Solving for p, Initial residual = 0.000528253, Final residual = 9.77686e-07, No Iterations 186
time step continuity errors : sum local = 1.6419e-10, global = -1.60867e-11, cumulative = 1.53736e-09
smoothSolver:  Solving for omega, Initial residual = 0.000205066, Final residual = 6.33061e-09, No Iterations 2
smoothSolver:  Solving for k, Initial residual = 0.000404725, Final residual = 2.35827e-08, No Iterations 2
ExecutionTime = 3461.89 s  ClockTime = 3468 s

Courant Number mean: 0.081448 max: 4.78776
deltaT = 0.647555
Time = 196.762225s

PIMPLE: Iteration 1
smoothSolver:  Solving for Ux, Initial residual = 0.000272594, Final residual = 6.82915e-07, No Iterations 1
smoothSolver:  Solving for Uy, Initial residual = 0.00184151, Final residual = 4.49454e-06, No Iterations 1
smoothSolver:  Solving for Uz, Initial residual = 0.00508345, Final residual = 1.01288e-05, No Iterations 1
GAMG:  Solving for p, Initial residual = 0.0041166, Final residual = 0.000192622, No Iterations 6
GAMG:  Solving for p, Initial residual = 0.00243414, Final residual = 0.00012152, No Iterations 6
GAMG:  Solving for p, Initial residual = 0.00087913, Final residual = 4.28765e-05, No Iterations 27
time step continuity errors : sum local = 7.20357e-09, global = 7.8624e-10
GAMG:  Solving for p, Initial residual = 0.00298254, Final residual = 0.000136939, No Iterations 6
GAMG:  Solving for p, Initial residual = 0.00157876, Final residual = 7.81019e-05, No Iterations 8
GAMG:  Solving for p, Initial residual = 0.000659357, Final residual = 9.79636e-07, No Iterations 194
time step continuity errors : sum local = 1.64606e-10, global = 1.5817e-11
PIMPLE: Iteration 2
smoothSolver:  Solving for Ux, Initial residual = 8.5878e-05, Final residual = 5.59184e-09, No Iterations 2
smoothSolver:  Solving for Uy, Initial residual = 0.000582645, Final residual = 4.88676e-08, No Iterations 2
smoothSolver:  Solving for Uz, Initial residual = 0.00159113, Final residual = 7.40499e-09, No Iterations 3
GAMG:  Solving for p, Initial residual = 0.00403805, Final residual = 0.000190534, No Iterations 5
GAMG:  Solving for p, Initial residual = 0.00239517, Final residual = 0.0001025, No Iterations 5
GAMG:  Solving for p, Initial residual = 0.000786429, Final residual = 3.83363e-05, No Iterations 16
time step continuity errors : sum local = 6.43219e-09, global = 7.97466e-10
GAMG:  Solving for p, Initial residual = 0.00284771, Final residual = 0.00013429, No Iterations 5
GAMG:  Solving for p, Initial residual = 0.00154387, Final residual = 7.38548e-05, No Iterations 6
GAMG:  Solving for p, Initial residual = 0.000526056, Final residual = 9.73763e-07, No Iterations 186
time step continuity errors : sum local = 1.63375e-10, global = -1.60034e-11, cumulative = 1.52135e-09
smoothSolver:  Solving for omega, Initial residual = 0.000204899, Final residual = 6.32238e-09, No Iterations 2
smoothSolver:  Solving for k, Initial residual = 0.000403457, Final residual = 2.34717e-08, No Iterations 2
bounding k, min: -0.0085412 max: 5.37507 average: 0.762635
ExecutionTime = 3471.54 s  ClockTime = 3478 s

Courant Number mean: 0.0814395 max: 4.7825
deltaT = 0.647555
Time = 197.40978s

PIMPLE: Iteration 1
smoothSolver:  Solving for Ux, Initial residual = 0.000271776, Final residual = 6.79993e-07, No Iterations 1
smoothSolver:  Solving for Uy, Initial residual = 0.00183919, Final residual = 4.46864e-06, No Iterations 1
smoothSolver:  Solving for Uz, Initial residual = 0.00507218, Final residual = 1.00973e-05, No Iterations 1
GAMG:  Solving for p, Initial residual = 0.00408421, Final residual = 0.000191254, No Iterations 6
GAMG:  Solving for p, Initial residual = 0.00241644, Final residual = 0.000113989, No Iterations 7
GAMG:  Solving for p, Initial residual = 0.000908532, Final residual = 4.52524e-05, No Iterations 24
time step continuity errors : sum local = 7.59599e-09, global = 8.32643e-10
GAMG:  Solving for p, Initial residual = 0.00294491, Final residual = 0.000137121, No Iterations 6
GAMG:  Solving for p, Initial residual = 0.00156281, Final residual = 7.12662e-05, No Iterations 10
GAMG:  Solving for p, Initial residual = 0.000717043, Final residual = 9.90982e-07, No Iterations 192
time step continuity errors : sum local = 1.66356e-10, global = 1.59842e-11
PIMPLE: Iteration 2
smoothSolver:  Solving for Ux, Initial residual = 8.5616e-05, Final residual = 5.56358e-09, No Iterations 2
smoothSolver:  Solving for Uy, Initial residual = 0.000581602, Final residual = 4.85004e-08, No Iterations 2
smoothSolver:  Solving for Uz, Initial residual = 0.00158659, Final residual = 7.36645e-09, No Iterations 3
GAMG:  Solving for p, Initial residual = 0.00401252, Final residual = 0.000188892, No Iterations 5
GAMG:  Solving for p, Initial residual = 0.00239347, Final residual = 0.000101383, No Iterations 5
GAMG:  Solving for p, Initial residual = 0.00078358, Final residual = 3.79942e-05, No Iterations 16
time step continuity errors : sum local = 6.36894e-09, global = 7.91918e-10
GAMG:  Solving for p, Initial residual = 0.0028294, Final residual = 0.000133132, No Iterations 5
GAMG:  Solving for p, Initial residual = 0.0015395, Final residual = 7.3266e-05, No Iterations 6
GAMG:  Solving for p, Initial residual = 0.000522866, Final residual = 9.71509e-07, No Iterations 186
time step continuity errors : sum local = 1.62847e-10, global = -1.59459e-11, cumulative = 1.50541e-09
smoothSolver:  Solving for omega, Initial residual = 0.000204737, Final residual = 6.31497e-09, No Iterations 2
smoothSolver:  Solving for k, Initial residual = 0.000402192, Final residual = 2.33707e-08, No Iterations 2
bounding k, min: -0.00345921 max: 5.36111 average: 0.76212
ExecutionTime = 3481.09 s  ClockTime = 3487 s

Courant Number mean: 0.0814309 max: 4.77728
deltaT = 0.647555
Time = 198.057335s

PIMPLE: Iteration 1
smoothSolver:  Solving for Ux, Initial residual = 0.000270961, Final residual = 6.77081e-07, No Iterations 1
smoothSolver:  Solving for Uy, Initial residual = 0.00183654, Final residual = 4.44228e-06, No Iterations 1
smoothSolver:  Solving for Uz, Initial residual = 0.00505898, Final residual = 1.00662e-05, No Iterations 1
GAMG:  Solving for p, Initial residual = 0.0040881, Final residual = 0.000190665, No Iterations 6
GAMG:  Solving for p, Initial residual = 0.00242126, Final residual = 0.00012027, No Iterations 6
GAMG:  Solving for p, Initial residual = 0.00087254, Final residual = 4.24397e-05, No Iterations 27
time step continuity errors : sum local = 7.11693e-09, global = 7.75757e-10
GAMG:  Solving for p, Initial residual = 0.00295702, Final residual = 0.00013559, No Iterations 6
GAMG:  Solving for p, Initial residual = 0.00157004, Final residual = 7.74215e-05, No Iterations 8
GAMG:  Solving for p, Initial residual = 0.000655383, Final residual = 9.66539e-07, No Iterations 194
time step continuity errors : sum local = 1.62103e-10, global = 1.55736e-11
PIMPLE: Iteration 2
smoothSolver:  Solving for Ux, Initial residual = 8.53546e-05, Final residual = 5.53572e-09, No Iterations 2
smoothSolver:  Solving for Uy, Initial residual = 0.000580632, Final residual = 4.81402e-08, No Iterations 2
smoothSolver:  Solving for Uz, Initial residual = 0.00158235, Final residual = 7.32913e-09, No Iterations 3
GAMG:  Solving for p, Initial residual = 0.0040128, Final residual = 0.000188521, No Iterations 5
GAMG:  Solving for p, Initial residual = 0.00240217, Final residual = 0.000119619, No Iterations 4
GAMG:  Solving for p, Initial residual = 0.000775669, Final residual = 3.84577e-05, No Iterations 16
time step continuity errors : sum local = 6.44069e-09, global = -7.12097e-10
GAMG:  Solving for p, Initial residual = 0.00283063, Final residual = 0.00013346, No Iterations 5
GAMG:  Solving for p, Initial residual = 0.00155219, Final residual = 7.31012e-05, No Iterations 6
GAMG:  Solving for p, Initial residual = 0.000526506, Final residual = 9.80396e-07, No Iterations 185
time step continuity errors : sum local = 1.64195e-10, global = -1.61075e-11, cumulative = 1.4893e-09
smoothSolver:  Solving for omega, Initial residual = 0.000204581, Final residual = 6.30274e-09, No Iterations 2
smoothSolver:  Solving for k, Initial residual = 0.000400926, Final residual = 2.32528e-08, No Iterations 2
ExecutionTime = 3490.58 s  ClockTime = 3497 s

Courant Number mean: 0.0814224 max: 4.77211
deltaT = 0.647555
Time = 198.70489s

PIMPLE: Iteration 1
smoothSolver:  Solving for Ux, Initial residual = 0.00027015, Final residual = 6.74186e-07, No Iterations 1
smoothSolver:  Solving for Uy, Initial residual = 0.00183344, Final residual = 4.41571e-06, No Iterations 1
smoothSolver:  Solving for Uz, Initial residual = 0.00504442, Final residual = 1.00376e-05, No Iterations 1
GAMG:  Solving for p, Initial residual = 0.00404745, Final residual = 0.000190861, No Iterations 6
GAMG:  Solving for p, Initial residual = 0.00240897, Final residual = 0.000113778, No Iterations 7
GAMG:  Solving for p, Initial residual = 0.000907172, Final residual = 4.5058e-05, No Iterations 24
time step continuity errors : sum local = 7.54955e-09, global = 8.26675e-10
GAMG:  Solving for p, Initial residual = 0.00291783, Final residual = 0.000136627, No Iterations 6
GAMG:  Solving for p, Initial residual = 0.00156237, Final residual = 7.09403e-05, No Iterations 10
GAMG:  Solving for p, Initial residual = 0.000717059, Final residual = 9.80348e-07, No Iterations 192
time step continuity errors : sum local = 1.64271e-10, global = 1.57815e-11
PIMPLE: Iteration 2
smoothSolver:  Solving for Ux, Initial residual = 8.5095e-05, Final residual = 5.50807e-09, No Iterations 2
smoothSolver:  Solving for Uy, Initial residual = 0.000579664, Final residual = 4.7785e-08, No Iterations 2
smoothSolver:  Solving for Uz, Initial residual = 0.00157777, Final residual = 7.29316e-09, No Iterations 3
GAMG:  Solving for p, Initial residual = 0.00396805, Final residual = 0.000187444, No Iterations 5
GAMG:  Solving for p, Initial residual = 0.00240974, Final residual = 0.000118141, No Iterations 4
GAMG:  Solving for p, Initial residual = 0.000776666, Final residual = 3.8061e-05, No Iterations 16
time step continuity errors : sum local = 6.36844e-09, global = -7.03482e-10
GAMG:  Solving for p, Initial residual = 0.00279867, Final residual = 0.000132217, No Iterations 5
GAMG:  Solving for p, Initial residual = 0.00155496, Final residual = 7.2548e-05, No Iterations 6
GAMG:  Solving for p, Initial residual = 0.000526269, Final residual = 9.73851e-07, No Iterations 185
time step continuity errors : sum local = 1.6295e-10, global = -1.59787e-11, cumulative = 1.47332e-09
smoothSolver:  Solving for omega, Initial residual = 0.000204433, Final residual = 6.28798e-09, No Iterations 2
smoothSolver:  Solving for k, Initial residual = 0.00039966, Final residual = 2.31381e-08, No Iterations 2
ExecutionTime = 3500.07 s  ClockTime = 3506 s

Courant Number mean: 0.081414 max: 4.76698
deltaT = 0.647555
Time = 199.352445s

PIMPLE: Iteration 1
smoothSolver:  Solving for Ux, Initial residual = 0.00026934, Final residual = 6.7134e-07, No Iterations 1
smoothSolver:  Solving for Uy, Initial residual = 0.00183054, Final residual = 4.38998e-06, No Iterations 1
smoothSolver:  Solving for Uz, Initial residual = 0.00502834, Final residual = 1.00087e-05, No Iterations 1
GAMG:  Solving for p, Initial residual = 0.00401479, Final residual = 0.000189895, No Iterations 6
GAMG:  Solving for p, Initial residual = 0.00239874, Final residual = 0.000113503, No Iterations 7
GAMG:  Solving for p, Initial residual = 0.000903504, Final residual = 4.4902e-05, No Iterations 24
time step continuity errors : sum local = 7.51646e-09, global = 8.22656e-10
GAMG:  Solving for p, Initial residual = 0.00289334, Final residual = 0.000136222, No Iterations 6
GAMG:  Solving for p, Initial residual = 0.00155249, Final residual = 7.0867e-05, No Iterations 10
GAMG:  Solving for p, Initial residual = 0.000715021, Final residual = 9.7698e-07, No Iterations 192
time step continuity errors : sum local = 1.63555e-10, global = 1.57119e-11
PIMPLE: Iteration 2
smoothSolver:  Solving for Ux, Initial residual = 8.48335e-05, Final residual = 5.48196e-09, No Iterations 2
smoothSolver:  Solving for Uy, Initial residual = 0.000578511, Final residual = 4.74253e-08, No Iterations 2
smoothSolver:  Solving for Uz, Initial residual = 0.00157244, Final residual = 7.25809e-09, No Iterations 3
GAMG:  Solving for p, Initial residual = 0.00392387, Final residual = 0.00018312, No Iterations 5
GAMG:  Solving for p, Initial residual = 0.00239611, Final residual = 0.000112038, No Iterations 4
GAMG:  Solving for p, Initial residual = 0.000738792, Final residual = 3.55252e-05, No Iterations 20
time step continuity errors : sum local = 5.93808e-09, global = -6.96396e-10
GAMG:  Solving for p, Initial residual = 0.00277696, Final residual = 0.000130536, No Iterations 5
GAMG:  Solving for p, Initial residual = 0.00155766, Final residual = 7.15879e-05, No Iterations 6
GAMG:  Solving for p, Initial residual = 0.000524433, Final residual = 9.63642e-07, No Iterations 185
time step continuity errors : sum local = 1.61081e-10, global = -1.57843e-11, cumulative = 1.45754e-09
smoothSolver:  Solving for omega, Initial residual = 0.000204295, Final residual = 6.2756e-09, No Iterations 2
smoothSolver:  Solving for k, Initial residual = 0.000398432, Final residual = 2.30263e-08, No Iterations 2
ExecutionTime = 3509.62 s  ClockTime = 3516 s

Courant Number mean: 0.0814055 max: 4.76188
deltaT = 0.647555
Time = 200s

PIMPLE: Iteration 1
smoothSolver:  Solving for Ux, Initial residual = 0.000268528, Final residual = 6.68574e-07, No Iterations 1
smoothSolver:  Solving for Uy, Initial residual = 0.00182787, Final residual = 4.364e-06, No Iterations 1
smoothSolver:  Solving for Uz, Initial residual = 0.00500972, Final residual = 9.97818e-06, No Iterations 1
GAMG:  Solving for p, Initial residual = 0.0039634, Final residual = 0.000189283, No Iterations 6
GAMG:  Solving for p, Initial residual = 0.00237774, Final residual = 0.000113405, No Iterations 7
GAMG:  Solving for p, Initial residual = 0.00089857, Final residual = 4.48345e-05, No Iterations 24
time step continuity errors : sum local = 7.4975e-09, global = 8.20233e-10
GAMG:  Solving for p, Initial residual = 0.00285726, Final residual = 0.000135693, No Iterations 6
GAMG:  Solving for p, Initial residual = 0.00153964, Final residual = 7.07281e-05, No Iterations 10
GAMG:  Solving for p, Initial residual = 0.000711761, Final residual = 9.73461e-07, No Iterations 192
time step continuity errors : sum local = 1.628e-10, global = 1.56385e-11
PIMPLE: Iteration 2
smoothSolver:  Solving for Ux, Initial residual = 8.45737e-05, Final residual = 5.45518e-09, No Iterations 2
smoothSolver:  Solving for Uy, Initial residual = 0.000577445, Final residual = 4.70731e-08, No Iterations 2
smoothSolver:  Solving for Uz, Initial residual = 0.00156645, Final residual = 7.22449e-09, No Iterations 3
GAMG:  Solving for p, Initial residual = 0.00387575, Final residual = 0.000180582, No Iterations 5
GAMG:  Solving for p, Initial residual = 0.00239578, Final residual = 0.000110587, No Iterations 4
GAMG:  Solving for p, Initial residual = 0.000737989, Final residual = 3.50194e-05, No Iterations 20
time step continuity errors : sum local = 5.84728e-09, global = -6.82611e-10
GAMG:  Solving for p, Initial residual = 0.00274171, Final residual = 0.000129134, No Iterations 5
GAMG:  Solving for p, Initial residual = 0.00154813, Final residual = 7.73687e-05, No Iterations 5
GAMG:  Solving for p, Initial residual = 0.000505784, Final residual = 9.92557e-07, No Iterations 184
time step continuity errors : sum local = 1.65734e-10, global = -1.62435e-11, cumulative = 1.44129e-09
smoothSolver:  Solving for omega, Initial residual = 0.00020415, Final residual = 6.26561e-09, No Iterations 2
smoothSolver:  Solving for k, Initial residual = 0.000397202, Final residual = 2.29105e-08, No Iterations 2
bounding k, min: -0.00746114 max: 5.30798 average: 0.760075
ExecutionTime = 3520.24 s  ClockTime = 3527 s

End

