/*---------------------------------------------------------------------------*\
  =========                 |
  \\      /  F ield         | OpenFOAM: The Open Source CFD Toolbox
   \\    /   O peration     | Website:  https://openfoam.org
    \\  /    A nd           | Version:  13
     \\/     M anipulation  |
\*---------------------------------------------------------------------------*/
Build  : 13-441953dfbb42
Exec   : checkMesh
Date   : Jun 19 2026
Time   : 13:35:40
Host   : "openfoam"
PID    : 1842
I/O    : uncollated
Case   : /home/ubuntu/OpenFOAM/ubuntu-v13/run/sRiverNoTerrain/urans/summer
nProcs : 1
sigFpe : Floating point exception trapping - not supported on this platform
fileModificationChecking : Monitoring run-time modified files using timeStampMaster (fileModificationSkew 10)
allowSystemOperations : Allowing user-supplied system call operations

// * * * * * * * * * * * * * * * * * * * * * * * * * * * * * * * * * * * * * //
Create time

Create mesh for time = 0

Time = 0s

Mesh stats
    points:           302994
    faces:            823558
    internal faces:   780179
    cells:            260556
    faces per cell:   6.15506
    boundary patches: 6
    point zones:      0
    face zones:       0
    cell zones:       0

Overall number of cells of each type:
    hexahedra:     245629
    prisms:        423
    wedges:        0
    pyramids:      0
    tet wedges:    5
    tetrahedra:    0
    polyhedra:     14499
    Breakdown of polyhedra by number of faces:
        faces   number of cells
            4   27
            5   450
            6   1502
            9   11585
           11   1
           12   669
           14   1
           15   206
           18   56
           21   2

Checking topology...
    Boundary definition OK.
    Cell to face addressing OK.
    Point usage OK.
    Upper triangular ordering OK.
    Face vertices OK.
    Number of regions: 1 (OK).

Checking patch topology for multiply connected surfaces...
                   Patch    Faces   Points                  Surface topology
                   inlet      800      861  ok (non-closed singly connected)
                  outlet      800      861  ok (non-closed singly connected)
                  ground    26967    27823  ok (non-closed singly connected)
            frontAndBack     2000     2142  ok (non-closed singly connected)
                     sky     2000     2091  ok (non-closed singly connected)
               buildings    10812    11653  ok (non-closed singly connected)

Checking geometry...
    Overall domain bounding box (-1600.36 -1600.36 0) (4000.9 1600.36 160.5)
    Mesh has 3 geometric (non-empty/wedge) directions (1 1 1)
    Mesh has 3 solution (non-empty) directions (1 1 1)
    Max cell openness = 3.1794e-16 OK.
    Max aspect ratio = 56.4346 OK.
    Minimum face area = 1.40758. Maximum face area = 8965.85.  Face area magnitudes OK.
    Min volume = 17.1781. Max volume = 72030.  Total volume = 2.8758e+09.  Cell volumes OK.
    Mesh non-orthogonality Max: 81.5702 average: 17.0544
   *Number of severely non-orthogonal (> 70 degrees) faces: 35085.
    Non-orthogonality check OK.
    Face pyramids OK.
 ***Max skewness = 16.02, 390 highly skew faces detected which may impair the quality of the results
    Coupled point location match (average 0) OK.

Failed 1 mesh checks.

End

