/*---------------------------------------------------------------------------*\
  =========                 |
  \\      /  F ield         | OpenFOAM: The Open Source CFD Toolbox
   \\    /   O peration     | Website:  https://openfoam.org
    \\  /    A nd           | Version:  13
     \\/     M anipulation  |
\*---------------------------------------------------------------------------*/
Build  : 13-441953dfbb42
Exec   : checkMesh
Date   : May 13 2026
Time   : 03:40:20
Host   : "openfoam"
PID    : 2417
I/O    : uncollated
Case   : /home/ubuntu/OpenFOAM/ubuntu-v13/run/sRiverTest/urans/summer
nProcs : 1
sigFpe : Floating point exception trapping - not supported on this platform
fileModificationChecking : Monitoring run-time modified files using timeStampMaster (fileModificationSkew 10)
allowSystemOperations : Allowing user-supplied system call operations

// * * * * * * * * * * * * * * * * * * * * * * * * * * * * * * * * * * * * * //
Create time

Create mesh for time = 0

Time = 0s

Mesh stats
    points:           302995
    faces:            823789
    internal faces:   780388
    cells:            260680
    faces per cell:   6.15382
    boundary patches: 6
    point zones:      0
    face zones:       0
    cell zones:       0

Overall number of cells of each type:
    hexahedra:     245630
    prisms:        546
    wedges:        0
    pyramids:      0
    tet wedges:    5
    tetrahedra:    0
    polyhedra:     14499
    Breakdown of polyhedra by number of faces:
        faces   number of cells
            4   22
            5   462
            6   1495
            9   11623
           12   645
           14   1
           15   202
           18   47
           21   2

Checking topology...
    Boundary definition OK.
    Cell to face addressing OK.
    Point usage OK.
    Upper triangular ordering OK.
    Face vertices OK.
    Number of regions: 1 (OK).

Checking patch topology for multiply connected surfaces...
                   Patch    Faces   Points                  Surface topology
                   inlet      800      861  ok (non-closed singly connected)
                  outlet      800      861  ok (non-closed singly connected)
                  ground    26948    27789  ok (non-closed singly connected)
            frontAndBack     2000     2142  ok (non-closed singly connected)
                     sky     2000     2091  ok (non-closed singly connected)
               buildings    10853    11661  ok (non-closed singly connected)

Checking geometry...
    Overall domain bounding box (-1423.91 -1421.2 0) (3559.77 1421.2 160.5)
    Mesh has 3 geometric (non-empty/wedge) directions (1 1 1)
    Mesh has 3 solution (non-empty) directions (1 1 1)
    Max cell openness = 3.04666e-16 OK.
    Max aspect ratio = 46.6183 OK.
    Minimum face area = 0.834286. Maximum face area = 7083.8.  Face area magnitudes OK.
    Min volume = 15.111. Max volume = 56926.3.  Total volume = 2.27219e+09.  Cell volumes OK.
    Mesh non-orthogonality Max: 80.0545 average: 16.7419
   *Number of severely non-orthogonal (> 70 degrees) faces: 35081.
    Non-orthogonality check OK.
    Face pyramids OK.
 ***Max skewness = 13.5736, 347 highly skew faces detected which may impair the quality of the results
    Coupled point location match (average 0) OK.

Failed 1 mesh checks.

End

