/*---------------------------------------------------------------------------*\
  =========                 |
  \\      /  F ield         | OpenFOAM: The Open Source CFD Toolbox
   \\    /   O peration     | Website:  https://openfoam.org
    \\  /    A nd           | Version:  13
     \\/     M anipulation  |
\*---------------------------------------------------------------------------*/
Build  : 13-441953dfbb42
Exec   : foamRun -solver incompressibleFluid
Date   : May 13 2026
Time   : 03:40:29
Host   : "openfoam"
PID    : 2420
I/O    : uncollated
Case   : /home/ubuntu/OpenFOAM/ubuntu-v13/run/sRiverTest/urans/summer
nProcs : 1
sigFpe : Floating point exception trapping - not supported on this platform
fileModificationChecking : Monitoring run-time modified files using timeStampMaster (fileModificationSkew 10)
allowSystemOperations : Allowing user-supplied system call operations

// * * * * * * * * * * * * * * * * * * * * * * * * * * * * * * * * * * * * * //
Create time

Create mesh for time = 0

Selecting solver incompressibleFluid
Selecting viscosity model constant
Selecting turbulence model type RAS
    Selecting RAS turbulence model kOmegaSST
No MRF models present

Selecting patchDistMethod meshWave
Courant Number mean: 0.00675724 max: 0.162225

PIMPLE: No convergence criteria found


PIMPLE: No corrector convergence criteria found
        Calculations will do 2 corrections


PIMPLE: Operating solver in transient mode with 2 outer correctors



Starting time loop

Courant Number mean: 0.00675724 max: 0.162225
deltaT = 0.0595238
Time = 0.0595238s

PIMPLE: Iteration 1
smoothSolver:  Solving for Ux, Initial residual = 1, Final residual = 0.000296255, No Iterations 1
smoothSolver:  Solving for Uy, Initial residual = 1, Final residual = 0.0037586, No Iterations 1
smoothSolver:  Solving for Uz, Initial residual = 1, Final residual = 0.00214103, No Iterations 1
GAMG:  Solving for p, Initial residual = 1, Final residual = 0.0499831, No Iterations 45
GAMG:  Solving for p, Initial residual = 0.614571, Final residual = 0.0238965, No Iterations 3
GAMG:  Solving for p, Initial residual = 0.0977841, Final residual = 0.00435397, No Iterations 5
time step continuity errors : sum local = 1.38192e-06, global = -1.04741e-07
GAMG:  Solving for p, Initial residual = 0.128155, Final residual = 0.00599503, No Iterations 43
GAMG:  Solving for p, Initial residual = 0.363984, Final residual = 0.0142149, No Iterations 3
GAMG:  Solving for p, Initial residual = 0.0683606, Final residual = 9.59257e-07, No Iterations 231
time step continuity errors : sum local = 3.09831e-10, global = -3.7719e-11
PIMPLE: Iteration 2
smoothSolver:  Solving for Ux, Initial residual = 0.0100308, Final residual = 1.09218e-08, No Iterations 2
smoothSolver:  Solving for Uy, Initial residual = 0.0197465, Final residual = 1.63221e-08, No Iterations 2
smoothSolver:  Solving for Uz, Initial residual = 0.0254601, Final residual = 2.22807e-09, No Iterations 3
GAMG:  Solving for p, Initial residual = 0.212923, Final residual = 0.0098546, No Iterations 34
GAMG:  Solving for p, Initial residual = 0.415362, Final residual = 0.0160951, No Iterations 3
GAMG:  Solving for p, Initial residual = 0.0735768, Final residual = 0.00344034, No Iterations 6
time step continuity errors : sum local = 9.93578e-07, global = 1.29955e-07
GAMG:  Solving for p, Initial residual = 0.0935536, Final residual = 0.00465081, No Iterations 28
GAMG:  Solving for p, Initial residual = 0.257382, Final residual = 0.0101309, No Iterations 3
GAMG:  Solving for p, Initial residual = 0.0516193, Final residual = 9.60155e-07, No Iterations 231
time step continuity errors : sum local = 2.81798e-10, global = -3.41791e-11, cumulative = -3.41791e-11
smoothSolver:  Solving for omega, Initial residual = 0.0346637, Final residual = 7.78054e-10, No Iterations 2
smoothSolver:  Solving for k, Initial residual = 1, Final residual = 6.66146e-08, No Iterations 2
ExecutionTime = 12.6174 s  ClockTime = 13 s

Courant Number mean: 0.00831178 max: 1.64592
deltaT = 0.0705782
Time = 0.130102s

PIMPLE: Iteration 1
smoothSolver:  Solving for Ux, Initial residual = 0.147762, Final residual = 1.93238e-05, No Iterations 1
smoothSolver:  Solving for Uy, Initial residual = 0.344915, Final residual = 0.000128917, No Iterations 1
smoothSolver:  Solving for Uz, Initial residual = 0.370298, Final residual = 0.000355833, No Iterations 1
GAMG:  Solving for p, Initial residual = 0.188458, Final residual = 0.00920852, No Iterations 14
GAMG:  Solving for p, Initial residual = 0.240376, Final residual = 0.0119591, No Iterations 3
GAMG:  Solving for p, Initial residual = 0.0731452, Final residual = 0.00359253, No Iterations 11
time step continuity errors : sum local = 7.21876e-07, global = -5.61702e-08
GAMG:  Solving for p, Initial residual = 0.141195, Final residual = 0.00601456, No Iterations 16
GAMG:  Solving for p, Initial residual = 0.180652, Final residual = 0.00867575, No Iterations 3
GAMG:  Solving for p, Initial residual = 0.0525912, Final residual = 9.78753e-07, No Iterations 195
time step continuity errors : sum local = 2.01335e-10, global = -2.40443e-11
PIMPLE: Iteration 2
smoothSolver:  Solving for Ux, Initial residual = 0.0280275, Final residual = 1.3258e-08, No Iterations 2
smoothSolver:  Solving for Uy, Initial residual = 0.0586823, Final residual = 1.44294e-09, No Iterations 3
smoothSolver:  Solving for Uz, Initial residual = 0.0697682, Final residual = 8.93258e-09, No Iterations 3
GAMG:  Solving for p, Initial residual = 0.175702, Final residual = 0.00769016, No Iterations 16
GAMG:  Solving for p, Initial residual = 0.239435, Final residual = 0.0109969, No Iterations 3
GAMG:  Solving for p, Initial residual = 0.0653272, Final residual = 0.00324551, No Iterations 9
time step continuity errors : sum local = 7.35279e-07, global = -5.46479e-08
GAMG:  Solving for p, Initial residual = 0.129905, Final residual = 0.00580548, No Iterations 16
GAMG:  Solving for p, Initial residual = 0.172048, Final residual = 0.00810318, No Iterations 3
GAMG:  Solving for p, Initial residual = 0.0461091, Final residual = 9.58912e-07, No Iterations 191
time step continuity errors : sum local = 2.21268e-10, global = -2.64033e-11, cumulative = -6.05823e-11
smoothSolver:  Solving for omega, Initial residual = 0.0284884, Final residual = 2.26673e-10, No Iterations 2
smoothSolver:  Solving for k, Initial residual = 0.993786, Final residual = 2.43318e-08, No Iterations 2
ExecutionTime = 21.6235 s  ClockTime = 22 s

Courant Number mean: 0.00990318 max: 2.18653
deltaT = 0.0839638
Time = 0.214066s

PIMPLE: Iteration 1
smoothSolver:  Solving for Ux, Initial residual = 0.110885, Final residual = 1.1032e-05, No Iterations 1
smoothSolver:  Solving for Uy, Initial residual = 0.139068, Final residual = 7.95294e-05, No Iterations 1
smoothSolver:  Solving for Uz, Initial residual = 0.182083, Final residual = 0.00020635, No Iterations 1
GAMG:  Solving for p, Initial residual = 0.14779, Final residual = 0.00672804, No Iterations 12
GAMG:  Solving for p, Initial residual = 0.135746, Final residual = 0.00502002, No Iterations 4
GAMG:  Solving for p, Initial residual = 0.0340339, Final residual = 0.00169135, No Iterations 14
time step continuity errors : sum local = 5.23757e-07, global = -4.89465e-08
GAMG:  Solving for p, Initial residual = 0.106323, Final residual = 0.00488502, No Iterations 12
GAMG:  Solving for p, Initial residual = 0.0940783, Final residual = 0.00367529, No Iterations 4
GAMG:  Solving for p, Initial residual = 0.0238552, Final residual = 9.69951e-07, No Iterations 212
time step continuity errors : sum local = 3.07144e-10, global = -3.7232e-11
PIMPLE: Iteration 2
smoothSolver:  Solving for Ux, Initial residual = 0.0271495, Final residual = 1.15711e-08, No Iterations 2
smoothSolver:  Solving for Uy, Initial residual = 0.0280588, Final residual = 1.91414e-09, No Iterations 3
smoothSolver:  Solving for Uz, Initial residual = 0.0409967, Final residual = 1.00206e-08, No Iterations 3
GAMG:  Solving for p, Initial residual = 0.125152, Final residual = 0.00597548, No Iterations 12
GAMG:  Solving for p, Initial residual = 0.126092, Final residual = 0.00617279, No Iterations 3
GAMG:  Solving for p, Initial residual = 0.0308478, Final residual = 0.00134171, No Iterations 15
time step continuity errors : sum local = 4.51594e-07, global = -4.05254e-08
GAMG:  Solving for p, Initial residual = 0.0899602, Final residual = 0.00427011, No Iterations 12
GAMG:  Solving for p, Initial residual = 0.0868349, Final residual = 0.00327268, No Iterations 4
GAMG:  Solving for p, Initial residual = 0.0215092, Final residual = 9.95047e-07, No Iterations 202
time step continuity errors : sum local = 3.41102e-10, global = -4.13061e-11, cumulative = -1.01888e-10
smoothSolver:  Solving for omega, Initial residual = 0.0416507, Final residual = 6.02315e-10, No Iterations 2
smoothSolver:  Solving for k, Initial residual = 0.989012, Final residual = 4.32798e-08, No Iterations 2
ExecutionTime = 31.0398 s  ClockTime = 32 s

Courant Number mean: 0.0118866 max: 2.66904
deltaT = 0.099707
Time = 0.313773s

PIMPLE: Iteration 1
smoothSolver:  Solving for Ux, Initial residual = 0.104169, Final residual = 8.6023e-06, No Iterations 1
smoothSolver:  Solving for Uy, Initial residual = 0.0508379, Final residual = 4.43855e-05, No Iterations 1
smoothSolver:  Solving for Uz, Initial residual = 0.110691, Final residual = 9.35988e-05, No Iterations 1
GAMG:  Solving for p, Initial residual = 0.112211, Final residual = 0.00509437, No Iterations 10
GAMG:  Solving for p, Initial residual = 0.101809, Final residual = 0.00373607, No Iterations 4
GAMG:  Solving for p, Initial residual = 0.0242741, Final residual = 0.00111911, No Iterations 14
time step continuity errors : sum local = 5.32191e-07, global = -4.37023e-08
GAMG:  Solving for p, Initial residual = 0.0791483, Final residual = 0.00364694, No Iterations 10
GAMG:  Solving for p, Initial residual = 0.0695896, Final residual = 0.00270416, No Iterations 4
GAMG:  Solving for p, Initial residual = 0.0169939, Final residual = 9.8602e-07, No Iterations 192
time step continuity errors : sum local = 4.74618e-10, global = -5.75631e-11
PIMPLE: Iteration 2
smoothSolver:  Solving for Ux, Initial residual = 0.0278663, Final residual = 8.84215e-09, No Iterations 2
smoothSolver:  Solving for Uy, Initial residual = 0.00797413, Final residual = 9.84877e-08, No Iterations 2
smoothSolver:  Solving for Uz, Initial residual = 0.0269244, Final residual = 5.76873e-09, No Iterations 3
GAMG:  Solving for p, Initial residual = 0.0941633, Final residual = 0.00464343, No Iterations 8
GAMG:  Solving for p, Initial residual = 0.0781903, Final residual = 0.00309108, No Iterations 4
GAMG:  Solving for p, Initial residual = 0.019075, Final residual = 0.000911923, No Iterations 14
time step continuity errors : sum local = 4.45617e-07, global = -3.56905e-08
GAMG:  Solving for p, Initial residual = 0.0662662, Final residual = 0.00330629, No Iterations 8
GAMG:  Solving for p, Initial residual = 0.0531283, Final residual = 0.00225386, No Iterations 4
GAMG:  Solving for p, Initial residual = 0.013398, Final residual = 9.75552e-07, No Iterations 184
time step continuity errors : sum local = 4.81289e-10, global = -5.831e-11, cumulative = -1.60198e-10
smoothSolver:  Solving for omega, Initial residual = 0.050527, Final residual = 1.38021e-09, No Iterations 2
smoothSolver:  Solving for k, Initial residual = 0.9854, Final residual = 7.61517e-08, No Iterations 2
ExecutionTime = 39.5942 s  ClockTime = 40 s

Courant Number mean: 0.0142862 max: 2.90736
deltaT = 0.117156
Time = 0.430928s

PIMPLE: Iteration 1
smoothSolver:  Solving for Ux, Initial residual = 0.101851, Final residual = 8.24962e-06, No Iterations 1
smoothSolver:  Solving for Uy, Initial residual = 0.0399536, Final residual = 3.40586e-05, No Iterations 1
smoothSolver:  Solving for Uz, Initial residual = 0.108963, Final residual = 0.000132251, No Iterations 1
GAMG:  Solving for p, Initial residual = 0.0990886, Final residual = 0.00368395, No Iterations 5
GAMG:  Solving for p, Initial residual = 0.041758, Final residual = 0.00192695, No Iterations 4
GAMG:  Solving for p, Initial residual = 0.0107383, Final residual = 0.000484769, No Iterations 16
time step continuity errors : sum local = 3.00019e-07, global = -2.83654e-08
GAMG:  Solving for p, Initial residual = 0.069719, Final residual = 0.0025871, No Iterations 5
GAMG:  Solving for p, Initial residual = 0.0283991, Final residual = 0.00139458, No Iterations 4
GAMG:  Solving for p, Initial residual = 0.00754099, Final residual = 9.60313e-07, No Iterations 178
time step continuity errors : sum local = 5.99097e-10, global = -7.29178e-11
PIMPLE: Iteration 2
smoothSolver:  Solving for Ux, Initial residual = 0.0285627, Final residual = 8.49465e-09, No Iterations 2
smoothSolver:  Solving for Uy, Initial residual = 0.0144327, Final residual = 8.03893e-09, No Iterations 3
smoothSolver:  Solving for Uz, Initial residual = 0.0310635, Final residual = 2.76326e-08, No Iterations 3
GAMG:  Solving for p, Initial residual = 0.0864219, Final residual = 0.00376875, No Iterations 4
GAMG:  Solving for p, Initial residual = 0.0319355, Final residual = 0.00153141, No Iterations 4
GAMG:  Solving for p, Initial residual = 0.00864546, Final residual = 0.00041501, No Iterations 9
time step continuity errors : sum local = 2.60444e-07, global = -2.36354e-08
GAMG:  Solving for p, Initial residual = 0.0600022, Final residual = 0.00265766, No Iterations 4
GAMG:  Solving for p, Initial residual = 0.0219785, Final residual = 0.000889909, No Iterations 5
GAMG:  Solving for p, Initial residual = 0.00639058, Final residual = 9.40303e-07, No Iterations 164
time step continuity errors : sum local = 5.92122e-10, global = -7.21045e-11, cumulative = -2.32303e-10
smoothSolver:  Solving for omega, Initial residual = 0.0578604, Final residual = 2.91901e-09, No Iterations 2
smoothSolver:  Solving for k, Initial residual = 0.982509, Final residual = 1.23547e-09, No Iterations 3
ExecutionTime = 47.295 s  ClockTime = 48 s

Courant Number mean: 0.0170245 max: 3.01686
deltaT = 0.138457
Time = 0.569385s

PIMPLE: Iteration 1
smoothSolver:  Solving for Ux, Initial residual = 0.102046, Final residual = 1.10125e-05, No Iterations 1
smoothSolver:  Solving for Uy, Initial residual = 0.0747299, Final residual = 7.617e-05, No Iterations 1
smoothSolver:  Solving for Uz, Initial residual = 0.11504, Final residual = 0.000185756, No Iterations 1
GAMG:  Solving for p, Initial residual = 0.0845448, Final residual = 0.00376435, No Iterations 4
GAMG:  Solving for p, Initial residual = 0.0295038, Final residual = 0.0013354, No Iterations 5
GAMG:  Solving for p, Initial residual = 0.00894413, Final residual = 0.000433474, No Iterations 10
time step continuity errors : sum local = 3.55506e-07, global = -2.52018e-08
GAMG:  Solving for p, Initial residual = 0.0596572, Final residual = 0.00268129, No Iterations 4
GAMG:  Solving for p, Initial residual = 0.0205252, Final residual = 0.000977021, No Iterations 5
GAMG:  Solving for p, Initial residual = 0.00633998, Final residual = 9.74772e-07, No Iterations 158
time step continuity errors : sum local = 7.99841e-10, global = -9.82749e-11
PIMPLE: Iteration 2
smoothSolver:  Solving for Ux, Initial residual = 0.0292297, Final residual = 1.21344e-08, No Iterations 2
smoothSolver:  Solving for Uy, Initial residual = 0.0208102, Final residual = 1.05052e-08, No Iterations 3
smoothSolver:  Solving for Uz, Initial residual = 0.0301619, Final residual = 2.87607e-08, No Iterations 3
GAMG:  Solving for p, Initial residual = 0.0704184, Final residual = 0.00298173, No Iterations 5
GAMG:  Solving for p, Initial residual = 0.0286891, Final residual = 0.00132919, No Iterations 5
GAMG:  Solving for p, Initial residual = 0.00888839, Final residual = 0.000436724, No Iterations 10
time step continuity errors : sum local = 3.60207e-07, global = 3.48064e-08
GAMG:  Solving for p, Initial residual = 0.0496807, Final residual = 0.00212306, No Iterations 5
GAMG:  Solving for p, Initial residual = 0.0199214, Final residual = 0.000970528, No Iterations 5
GAMG:  Solving for p, Initial residual = 0.00629054, Final residual = 9.9108e-07, No Iterations 151
time step continuity errors : sum local = 8.17328e-10, global = -1.01474e-10, cumulative = -3.33777e-10
smoothSolver:  Solving for omega, Initial residual = 0.0653157, Final residual = 6.03859e-09, No Iterations 2
smoothSolver:  Solving for k, Initial residual = 0.979779, Final residual = 2.63054e-09, No Iterations 3
ExecutionTime = 54.3781 s  ClockTime = 55 s

Courant Number mean: 0.0204502 max: 3.14076
deltaT = 0.164097
Time = 0.733482s

PIMPLE: Iteration 1
smoothSolver:  Solving for Ux, Initial residual = 0.102527, Final residual = 1.46295e-05, No Iterations 1
smoothSolver:  Solving for Uy, Initial residual = 0.0624974, Final residual = 8.42202e-05, No Iterations 1
smoothSolver:  Solving for Uz, Initial residual = 0.0933059, Final residual = 0.000154171, No Iterations 1
GAMG:  Solving for p, Initial residual = 0.0556001, Final residual = 0.00271872, No Iterations 5
GAMG:  Solving for p, Initial residual = 0.0245395, Final residual = 0.00117553, No Iterations 6
GAMG:  Solving for p, Initial residual = 0.0085207, Final residual = 0.000363967, No Iterations 11
time step continuity errors : sum local = 4.01706e-07, global = 3.14661e-08
GAMG:  Solving for p, Initial residual = 0.0395373, Final residual = 0.00194212, No Iterations 5
GAMG:  Solving for p, Initial residual = 0.0169582, Final residual = 0.000705208, No Iterations 7
GAMG:  Solving for p, Initial residual = 0.00616343, Final residual = 9.99635e-07, No Iterations 126
time step continuity errors : sum local = 1.10205e-09, global = 1.31047e-10
PIMPLE: Iteration 2
smoothSolver:  Solving for Ux, Initial residual = 0.0296941, Final residual = 1.76425e-08, No Iterations 2
smoothSolver:  Solving for Uy, Initial residual = 0.0147916, Final residual = 1.1678e-08, No Iterations 3
smoothSolver:  Solving for Uz, Initial residual = 0.0245174, Final residual = 2.63125e-08, No Iterations 3
GAMG:  Solving for p, Initial residual = 0.0444816, Final residual = 0.00198877, No Iterations 6
GAMG:  Solving for p, Initial residual = 0.0217425, Final residual = 0.000908045, No Iterations 6
GAMG:  Solving for p, Initial residual = 0.00703551, Final residual = 0.000319666, No Iterations 12
time step continuity errors : sum local = 3.54024e-07, global = 2.41017e-08
GAMG:  Solving for p, Initial residual = 0.0316619, Final residual = 0.00141405, No Iterations 6
GAMG:  Solving for p, Initial residual = 0.0150155, Final residual = 0.000663572, No Iterations 6
GAMG:  Solving for p, Initial residual = 0.00496126, Final residual = 9.37621e-07, No Iterations 120
time step continuity errors : sum local = 1.03737e-09, global = 1.21909e-10, cumulative = -2.11867e-10
smoothSolver:  Solving for omega, Initial residual = 0.0727876, Final residual = 1.25894e-08, No Iterations 2
smoothSolver:  Solving for k, Initial residual = 0.977158, Final residual = 5.14933e-09, No Iterations 3
ExecutionTime = 60.5544 s  ClockTime = 61 s

Courant Number mean: 0.0246937 max: 3.41813
deltaT = 0.193933
Time = 0.927415s

PIMPLE: Iteration 1
smoothSolver:  Solving for Ux, Initial residual = 0.102805, Final residual = 1.92337e-05, No Iterations 1
smoothSolver:  Solving for Uy, Initial residual = 0.0294768, Final residual = 5.87288e-05, No Iterations 1
smoothSolver:  Solving for Uz, Initial residual = 0.0748651, Final residual = 0.0001188, No Iterations 1
GAMG:  Solving for p, Initial residual = 0.045429, Final residual = 0.00211045, No Iterations 4
GAMG:  Solving for p, Initial residual = 0.0169807, Final residual = 0.000804351, No Iterations 8
GAMG:  Solving for p, Initial residual = 0.00666644, Final residual = 0.000312905, No Iterations 12
time step continuity errors : sum local = 4.62026e-07, global = 3.53732e-08
GAMG:  Solving for p, Initial residual = 0.0319851, Final residual = 0.00149349, No Iterations 4
GAMG:  Solving for p, Initial residual = 0.0116267, Final residual = 0.000509672, No Iterations 10
GAMG:  Solving for p, Initial residual = 0.00516598, Final residual = 9.50844e-07, No Iterations 148
time step continuity errors : sum local = 1.39857e-09, global = 1.71317e-10
PIMPLE: Iteration 2
smoothSolver:  Solving for Ux, Initial residual = 0.0300696, Final residual = 2.59289e-08, No Iterations 2
smoothSolver:  Solving for Uy, Initial residual = 0.00687253, Final residual = 1.3274e-08, No Iterations 3
smoothSolver:  Solving for Uz, Initial residual = 0.020651, Final residual = 1.49218e-08, No Iterations 3
GAMG:  Solving for p, Initial residual = 0.0370136, Final residual = 0.0016757, No Iterations 4
GAMG:  Solving for p, Initial residual = 0.0134866, Final residual = 0.000583985, No Iterations 7
GAMG:  Solving for p, Initial residual = 0.00493779, Final residual = 0.000219137, No Iterations 12
time step continuity errors : sum local = 3.24735e-07, global = 2.26777e-08
GAMG:  Solving for p, Initial residual = 0.0260156, Final residual = 0.00118165, No Iterations 4
GAMG:  Solving for p, Initial residual = 0.00939187, Final residual = 0.000423348, No Iterations 7
GAMG:  Solving for p, Initial residual = 0.00348976, Final residual = 9.67742e-07, No Iterations 132
time step continuity errors : sum local = 1.43156e-09, global = 1.74172e-10, cumulative = -3.76955e-11
smoothSolver:  Solving for omega, Initial residual = 0.0790585, Final residual = 2.38318e-08, No Iterations 2
smoothSolver:  Solving for k, Initial residual = 0.97462, Final residual = 9.21619e-09, No Iterations 3
ExecutionTime = 67.3358 s  ClockTime = 68 s

Courant Number mean: 0.0298069 max: 3.89959
deltaT = 0.226255
Time = 1.15367s

PIMPLE: Iteration 1
smoothSolver:  Solving for Ux, Initial residual = 0.102546, Final residual = 2.53726e-05, No Iterations 1
smoothSolver:  Solving for Uy, Initial residual = 0.0290394, Final residual = 7.44752e-05, No Iterations 1
smoothSolver:  Solving for Uz, Initial residual = 0.067496, Final residual = 0.00012746, No Iterations 1
GAMG:  Solving for p, Initial residual = 0.0398339, Final residual = 0.00178404, No Iterations 4
GAMG:  Solving for p, Initial residual = 0.0112641, Final residual = 0.000509355, No Iterations 7
GAMG:  Solving for p, Initial residual = 0.00404503, Final residual = 0.000188734, No Iterations 14
time step continuity errors : sum local = 3.68828e-07, global = 3.8431e-08
GAMG:  Solving for p, Initial residual = 0.027732, Final residual = 0.00129141, No Iterations 4
GAMG:  Solving for p, Initial residual = 0.0078328, Final residual = 0.000382905, No Iterations 7
GAMG:  Solving for p, Initial residual = 0.00293834, Final residual = 9.58944e-07, No Iterations 152
time step continuity errors : sum local = 1.86761e-09, global = 2.30947e-10
PIMPLE: Iteration 2
smoothSolver:  Solving for Ux, Initial residual = 0.0303581, Final residual = 4.28416e-08, No Iterations 2
smoothSolver:  Solving for Uy, Initial residual = 0.00854502, Final residual = 2.79985e-08, No Iterations 3
smoothSolver:  Solving for Uz, Initial residual = 0.0187555, Final residual = 3.07985e-08, No Iterations 3
GAMG:  Solving for p, Initial residual = 0.031522, Final residual = 0.00154754, No Iterations 3
GAMG:  Solving for p, Initial residual = 0.00878658, Final residual = 0.000424477, No Iterations 6
GAMG:  Solving for p, Initial residual = 0.00293305, Final residual = 0.000133085, No Iterations 12
time step continuity errors : sum local = 2.62138e-07, global = 2.44004e-08
GAMG:  Solving for p, Initial residual = 0.021912, Final residual = 0.00108575, No Iterations 3
GAMG:  Solving for p, Initial residual = 0.00606396, Final residual = 0.000264147, No Iterations 8
GAMG:  Solving for p, Initial residual = 0.00236501, Final residual = 9.79791e-07, No Iterations 132
time step continuity errors : sum local = 1.92384e-09, global = 2.36985e-10, cumulative = 1.99289e-10
smoothSolver:  Solving for omega, Initial residual = 0.0850898, Final residual = 4.35539e-08, No Iterations 2
smoothSolver:  Solving for k, Initial residual = 0.971894, Final residual = 1.48534e-08, No Iterations 3
ExecutionTime = 74.1257 s  ClockTime = 75 s

Courant Number mean: 0.0356072 max: 4.55682
deltaT = 0.240396
--> FOAM Warning : 
    From function virtual Foam::Time& Foam::Time::operator++()
    in file db/Time/Time.C at line 1304
    Increased the timePrecision from 6 to 7 to distinguish between timeNames at time 1.394065
Time = 1.394065s

PIMPLE: Iteration 1
smoothSolver:  Solving for Ux, Initial residual = 0.0953446, Final residual = 2.72253e-05, No Iterations 1
smoothSolver:  Solving for Uy, Initial residual = 0.0284194, Final residual = 8.03952e-05, No Iterations 1
smoothSolver:  Solving for Uz, Initial residual = 0.0547896, Final residual = 0.000106067, No Iterations 1
GAMG:  Solving for p, Initial residual = 0.0290288, Final residual = 0.00110411, No Iterations 4
GAMG:  Solving for p, Initial residual = 0.00795787, Final residual = 0.000364812, No Iterations 5
GAMG:  Solving for p, Initial residual = 0.00232731, Final residual = 0.000105045, No Iterations 12
time step continuity errors : sum local = 2.35341e-07, global = 1.96835e-08
GAMG:  Solving for p, Initial residual = 0.0201734, Final residual = 0.000773393, No Iterations 4
GAMG:  Solving for p, Initial residual = 0.00547299, Final residual = 0.000265881, No Iterations 5
GAMG:  Solving for p, Initial residual = 0.00164792, Final residual = 9.81475e-07, No Iterations 122
time step continuity errors : sum local = 2.19546e-09, global = 2.69414e-10
PIMPLE: Iteration 2
smoothSolver:  Solving for Ux, Initial residual = 0.0287023, Final residual = 5.07433e-08, No Iterations 2
smoothSolver:  Solving for Uy, Initial residual = 0.00758014, Final residual = 2.56187e-08, No Iterations 3
smoothSolver:  Solving for Uz, Initial residual = 0.0150701, Final residual = 3.52724e-08, No Iterations 3
GAMG:  Solving for p, Initial residual = 0.0230478, Final residual = 0.000975243, No Iterations 4
GAMG:  Solving for p, Initial residual = 0.00770616, Final residual = 0.000383545, No Iterations 4
GAMG:  Solving for p, Initial residual = 0.00213783, Final residual = 0.000102033, No Iterations 10
time step continuity errors : sum local = 2.30789e-07, global = -1.84726e-08
GAMG:  Solving for p, Initial residual = 0.0160073, Final residual = 0.000678442, No Iterations 4
GAMG:  Solving for p, Initial residual = 0.00529462, Final residual = 0.000231429, No Iterations 5
GAMG:  Solving for p, Initial residual = 0.00153986, Final residual = 9.69735e-07, No Iterations 83
time step continuity errors : sum local = 2.19297e-09, global = -2.82552e-10, cumulative = -8.32628e-11
smoothSolver:  Solving for omega, Initial residual = 0.0835435, Final residual = 5.60422e-08, No Iterations 2
smoothSolver:  Solving for k, Initial residual = 0.96728, Final residual = 2.1245e-08, No Iterations 3
ExecutionTime = 79.3725 s  ClockTime = 80 s

Courant Number mean: 0.0387719 max: 4.94503
deltaT = 0.240396
Time = 1.634461s

PIMPLE: Iteration 1
smoothSolver:  Solving for Ux, Initial residual = 0.0864205, Final residual = 2.52775e-05, No Iterations 1
smoothSolver:  Solving for Uy, Initial residual = 0.0190002, Final residual = 5.61853e-05, No Iterations 1
smoothSolver:  Solving for Uz, Initial residual = 0.042, Final residual = 7.26362e-05, No Iterations 1
GAMG:  Solving for p, Initial residual = 0.0223412, Final residual = 0.00083076, No Iterations 4
GAMG:  Solving for p, Initial residual = 0.00685294, Final residual = 0.000301116, No Iterations 5
GAMG:  Solving for p, Initial residual = 0.00200851, Final residual = 9.7038e-05, No Iterations 11
time step continuity errors : sum local = 2.22811e-07, global = -2.42597e-08
GAMG:  Solving for p, Initial residual = 0.015579, Final residual = 0.00057755, No Iterations 4
GAMG:  Solving for p, Initial residual = 0.00468245, Final residual = 0.000220996, No Iterations 5
GAMG:  Solving for p, Initial residual = 0.00141332, Final residual = 9.54569e-07, No Iterations 131
time step continuity errors : sum local = 2.19254e-09, global = -2.76515e-10
PIMPLE: Iteration 2
smoothSolver:  Solving for Ux, Initial residual = 0.026352, Final residual = 4.6928e-08, No Iterations 2
smoothSolver:  Solving for Uy, Initial residual = 0.00525227, Final residual = 2.22135e-08, No Iterations 3
smoothSolver:  Solving for Uz, Initial residual = 0.0118113, Final residual = 1.84366e-08, No Iterations 3
GAMG:  Solving for p, Initial residual = 0.0191847, Final residual = 0.00078547, No Iterations 4
GAMG:  Solving for p, Initial residual = 0.00619791, Final residual = 0.000303069, No Iterations 6
GAMG:  Solving for p, Initial residual = 0.00193479, Final residual = 9.17941e-05, No Iterations 16
time step continuity errors : sum local = 2.12058e-07, global = -2.19383e-08
GAMG:  Solving for p, Initial residual = 0.0134146, Final residual = 0.000546253, No Iterations 4
GAMG:  Solving for p, Initial residual = 0.00418451, Final residual = 0.000198381, No Iterations 8
GAMG:  Solving for p, Initial residual = 0.00153589, Final residual = 9.38769e-07, No Iterations 134
time step continuity errors : sum local = 2.17296e-09, global = -2.70857e-10, cumulative = -3.5412e-10
smoothSolver:  Solving for omega, Initial residual = 0.0772884, Final residual = 5.52312e-08, No Iterations 2
smoothSolver:  Solving for k, Initial residual = 0.9604, Final residual = 2.23328e-08, No Iterations 3
ExecutionTime = 85.8179 s  ClockTime = 86 s

Courant Number mean: 0.0397107 max: 5.0659
deltaT = 0.224369
Time = 1.85883s

PIMPLE: Iteration 1
smoothSolver:  Solving for Ux, Initial residual = 0.0755538, Final residual = 2.01121e-05, No Iterations 1
smoothSolver:  Solving for Uy, Initial residual = 0.0139614, Final residual = 3.23434e-05, No Iterations 1
smoothSolver:  Solving for Uz, Initial residual = 0.031637, Final residual = 4.99181e-05, No Iterations 1
GAMG:  Solving for p, Initial residual = 0.0238792, Final residual = 0.000884847, No Iterations 4
GAMG:  Solving for p, Initial residual = 0.00721859, Final residual = 0.000354196, No Iterations 8
GAMG:  Solving for p, Initial residual = 0.00319756, Final residual = 0.000157807, No Iterations 14
time step continuity errors : sum local = 3.2929e-07, global = -3.68624e-08
GAMG:  Solving for p, Initial residual = 0.0165456, Final residual = 0.000622748, No Iterations 4
GAMG:  Solving for p, Initial residual = 0.00489532, Final residual = 0.000226539, No Iterations 10
GAMG:  Solving for p, Initial residual = 0.00265295, Final residual = 9.84177e-07, No Iterations 152
time step continuity errors : sum local = 2.06017e-09, global = -2.57195e-10
PIMPLE: Iteration 2
smoothSolver:  Solving for Ux, Initial residual = 0.0232768, Final residual = 3.37551e-08, No Iterations 2
smoothSolver:  Solving for Uy, Initial residual = 0.00407675, Final residual = 1.23293e-08, No Iterations 3
smoothSolver:  Solving for Uz, Initial residual = 0.00906524, Final residual = 9.47393e-09, No Iterations 3
GAMG:  Solving for p, Initial residual = 0.0195645, Final residual = 0.000748146, No Iterations 4
GAMG:  Solving for p, Initial residual = 0.00552155, Final residual = 0.000241912, No Iterations 10
GAMG:  Solving for p, Initial residual = 0.00280063, Final residual = 0.00013367, No Iterations 12
time step continuity errors : sum local = 2.81298e-07, global = -3.05308e-08
GAMG:  Solving for p, Initial residual = 0.0135495, Final residual = 0.000530206, No Iterations 4
GAMG:  Solving for p, Initial residual = 0.00377644, Final residual = 0.000186399, No Iterations 10
GAMG:  Solving for p, Initial residual = 0.00215373, Final residual = 9.59357e-07, No Iterations 146
time step continuity errors : sum local = 2.02318e-09, global = -2.52151e-10, cumulative = -6.06271e-10
smoothSolver:  Solving for omega, Initial residual = 0.0665147, Final residual = 4.06815e-08, No Iterations 2
smoothSolver:  Solving for k, Initial residual = 0.947619, Final residual = 1.83596e-08, No Iterations 3
ExecutionTime = 93.0512 s  ClockTime = 94 s

Courant Number mean: 0.0378871 max: 4.81008
deltaT = 0.224369
Time = 2.083199s

PIMPLE: Iteration 1
smoothSolver:  Solving for Ux, Initial residual = 0.0720836, Final residual = 1.89993e-05, No Iterations 1
smoothSolver:  Solving for Uy, Initial residual = 0.0121047, Final residual = 2.4639e-05, No Iterations 1
smoothSolver:  Solving for Uz, Initial residual = 0.0266394, Final residual = 4.24681e-05, No Iterations 1
GAMG:  Solving for p, Initial residual = 0.0180342, Final residual = 0.00067505, No Iterations 3
GAMG:  Solving for p, Initial residual = 0.00395397, Final residual = 0.000165021, No Iterations 5
GAMG:  Solving for p, Initial residual = 0.00125661, Final residual = 5.9894e-05, No Iterations 10
time step continuity errors : sum local = 1.24466e-07, global = -1.51227e-08
GAMG:  Solving for p, Initial residual = 0.0125495, Final residual = 0.000454116, No Iterations 3
GAMG:  Solving for p, Initial residual = 0.00262257, Final residual = 0.000130775, No Iterations 5
GAMG:  Solving for p, Initial residual = 0.000877499, Final residual = 9.37929e-07, No Iterations 128
time step continuity errors : sum local = 1.94956e-09, global = -2.45797e-10
PIMPLE: Iteration 2
smoothSolver:  Solving for Ux, Initial residual = 0.0221947, Final residual = 3.10667e-08, No Iterations 2
smoothSolver:  Solving for Uy, Initial residual = 0.00342075, Final residual = 9.00994e-09, No Iterations 3
smoothSolver:  Solving for Uz, Initial residual = 0.00761012, Final residual = 9.75831e-09, No Iterations 3
GAMG:  Solving for p, Initial residual = 0.0147209, Final residual = 0.000513457, No Iterations 3
GAMG:  Solving for p, Initial residual = 0.00303018, Final residual = 0.000127743, No Iterations 6
GAMG:  Solving for p, Initial residual = 0.00096524, Final residual = 4.3332e-05, No Iterations 12
time step continuity errors : sum local = 8.9837e-08, global = -9.44276e-09
GAMG:  Solving for p, Initial residual = 0.0102469, Final residual = 0.000363261, No Iterations 3
GAMG:  Solving for p, Initial residual = 0.00212169, Final residual = 9.33585e-05, No Iterations 6
GAMG:  Solving for p, Initial residual = 0.000686901, Final residual = 9.6096e-07, No Iterations 110
time step continuity errors : sum local = 1.99389e-09, global = -2.47148e-10, cumulative = -8.53419e-10
smoothSolver:  Solving for omega, Initial residual = 0.0606852, Final residual = 3.65182e-08, No Iterations 2
smoothSolver:  Solving for k, Initial residual = 0.934335, Final residual = 1.69154e-08, No Iterations 3
ExecutionTime = 98.8445 s  ClockTime = 99 s

Courant Number mean: 0.0386838 max: 4.86919
deltaT = 0.224369
Time = 2.307569s

PIMPLE: Iteration 1
smoothSolver:  Solving for Ux, Initial residual = 0.068675, Final residual = 1.83386e-05, No Iterations 1
smoothSolver:  Solving for Uy, Initial residual = 0.00956772, Final residual = 2.11003e-05, No Iterations 1
smoothSolver:  Solving for Uz, Initial residual = 0.0224305, Final residual = 3.42652e-05, No Iterations 1
GAMG:  Solving for p, Initial residual = 0.0139199, Final residual = 0.000540838, No Iterations 3
GAMG:  Solving for p, Initial residual = 0.00293797, Final residual = 0.000110837, No Iterations 7
GAMG:  Solving for p, Initial residual = 0.00107919, Final residual = 5.37752e-05, No Iterations 6
time step continuity errors : sum local = 1.11211e-07, global = 9.41152e-09
GAMG:  Solving for p, Initial residual = 0.00971715, Final residual = 0.000380987, No Iterations 3
GAMG:  Solving for p, Initial residual = 0.00204198, Final residual = 8.22448e-05, No Iterations 7
GAMG:  Solving for p, Initial residual = 0.000775405, Final residual = 9.23427e-07, No Iterations 68
time step continuity errors : sum local = 1.90997e-09, global = 1.97402e-10
PIMPLE: Iteration 2
smoothSolver:  Solving for Ux, Initial residual = 0.021182, Final residual = 2.96094e-08, No Iterations 2
smoothSolver:  Solving for Uy, Initial residual = 0.00276639, Final residual = 6.7746e-09, No Iterations 3
smoothSolver:  Solving for Uz, Initial residual = 0.00647048, Final residual = 7.08481e-09, No Iterations 3
GAMG:  Solving for p, Initial residual = 0.0114021, Final residual = 0.000434551, No Iterations 3
GAMG:  Solving for p, Initial residual = 0.00252365, Final residual = 0.000103911, No Iterations 5
GAMG:  Solving for p, Initial residual = 0.000745369, Final residual = 3.30719e-05, No Iterations 8
time step continuity errors : sum local = 6.8397e-08, global = 4.05699e-09
GAMG:  Solving for p, Initial residual = 0.00795527, Final residual = 0.000303074, No Iterations 3
GAMG:  Solving for p, Initial residual = 0.00174493, Final residual = 7.51862e-05, No Iterations 5
GAMG:  Solving for p, Initial residual = 0.000522872, Final residual = 9.79457e-07, No Iterations 78
time step continuity errors : sum local = 2.02544e-09, global = 2.49517e-10, cumulative = -6.03902e-10
smoothSolver:  Solving for omega, Initial residual = 0.0554592, Final residual = 3.40745e-08, No Iterations 2
smoothSolver:  Solving for k, Initial residual = 0.91996, Final residual = 1.68945e-08, No Iterations 3
ExecutionTime = 102.965 s  ClockTime = 104 s

Courant Number mean: 0.0394535 max: 4.93901
deltaT = 0.224369
Time = 2.531938s

PIMPLE: Iteration 1
smoothSolver:  Solving for Ux, Initial residual = 0.0655443, Final residual = 1.7693e-05, No Iterations 1
smoothSolver:  Solving for Uy, Initial residual = 0.00819158, Final residual = 1.96101e-05, No Iterations 1
smoothSolver:  Solving for Uz, Initial residual = 0.019215, Final residual = 2.72754e-05, No Iterations 1
GAMG:  Solving for p, Initial residual = 0.0117489, Final residual = 0.000563847, No Iterations 3
GAMG:  Solving for p, Initial residual = 0.00257407, Final residual = 0.00011331, No Iterations 9
GAMG:  Solving for p, Initial residual = 0.000961117, Final residual = 4.45741e-05, No Iterations 14
time step continuity errors : sum local = 9.18578e-08, global = 1.01878e-08
GAMG:  Solving for p, Initial residual = 0.00821302, Final residual = 0.000398353, No Iterations 3
GAMG:  Solving for p, Initial residual = 0.00178257, Final residual = 8.4669e-05, No Iterations 9
GAMG:  Solving for p, Initial residual = 0.000705114, Final residual = 9.91445e-07, No Iterations 112
time step continuity errors : sum local = 2.04165e-09, global = 2.51305e-10
PIMPLE: Iteration 2
smoothSolver:  Solving for Ux, Initial residual = 0.0202177, Final residual = 2.83195e-08, No Iterations 2
smoothSolver:  Solving for Uy, Initial residual = 0.00269578, Final residual = 5.74971e-09, No Iterations 3
smoothSolver:  Solving for Uz, Initial residual = 0.0057018, Final residual = 8.91663e-08, No Iterations 2
GAMG:  Solving for p, Initial residual = 0.00986457, Final residual = 0.000484383, No Iterations 3
GAMG:  Solving for p, Initial residual = 0.00220431, Final residual = 0.000104674, No Iterations 11
GAMG:  Solving for p, Initial residual = 0.00135361, Final residual = 6.51019e-05, No Iterations 10
time step continuity errors : sum local = 1.33849e-07, global = 1.37781e-08
GAMG:  Solving for p, Initial residual = 0.00690769, Final residual = 0.00022381, No Iterations 4
GAMG:  Solving for p, Initial residual = 0.00149985, Final residual = 7.24852e-05, No Iterations 12
GAMG:  Solving for p, Initial residual = 0.00106561, Final residual = 9.83613e-07, No Iterations 122
time step continuity errors : sum local = 2.02009e-09, global = 2.51352e-10, cumulative = -3.5255e-10
smoothSolver:  Solving for omega, Initial residual = 0.0507717, Final residual = 3.17993e-08, No Iterations 2
smoothSolver:  Solving for k, Initial residual = 0.898212, Final residual = 1.64516e-08, No Iterations 3
ExecutionTime = 109.063 s  ClockTime = 110 s

Courant Number mean: 0.0401989 max: 5.03304
deltaT = 0.205672
Time = 2.73761s

PIMPLE: Iteration 1
smoothSolver:  Solving for Ux, Initial residual = 0.0577364, Final residual = 1.37692e-05, No Iterations 1
smoothSolver:  Solving for Uy, Initial residual = 0.00824822, Final residual = 1.57808e-05, No Iterations 1
smoothSolver:  Solving for Uz, Initial residual = 0.0157162, Final residual = 1.79404e-05, No Iterations 1
GAMG:  Solving for p, Initial residual = 0.0157388, Final residual = 0.000658097, No Iterations 3
GAMG:  Solving for p, Initial residual = 0.00429204, Final residual = 0.000182926, No Iterations 6
GAMG:  Solving for p, Initial residual = 0.00125263, Final residual = 5.90973e-05, No Iterations 14
time step continuity errors : sum local = 1.05807e-07, global = -1.1938e-08
GAMG:  Solving for p, Initial residual = 0.0109481, Final residual = 0.000460952, No Iterations 3
GAMG:  Solving for p, Initial residual = 0.00293652, Final residual = 0.000133662, No Iterations 6
GAMG:  Solving for p, Initial residual = 0.000909028, Final residual = 9.92575e-07, No Iterations 124
time step continuity errors : sum local = 1.77908e-09, global = -2.20344e-10
PIMPLE: Iteration 2
smoothSolver:  Solving for Ux, Initial residual = 0.0178678, Final residual = 1.94446e-08, No Iterations 2
smoothSolver:  Solving for Uy, Initial residual = 0.00262539, Final residual = 9.00887e-08, No Iterations 2
smoothSolver:  Solving for Uz, Initial residual = 0.00471907, Final residual = 6.11645e-08, No Iterations 2
GAMG:  Solving for p, Initial residual = 0.0120344, Final residual = 0.000391766, No Iterations 3
GAMG:  Solving for p, Initial residual = 0.00278719, Final residual = 0.000123567, No Iterations 4
GAMG:  Solving for p, Initial residual = 0.000707989, Final residual = 2.95876e-05, No Iterations 10
time step continuity errors : sum local = 5.29618e-08, global = -3.40672e-09
GAMG:  Solving for p, Initial residual = 0.00842415, Final residual = 0.000276744, No Iterations 3
GAMG:  Solving for p, Initial residual = 0.00194145, Final residual = 8.95446e-05, No Iterations 4
GAMG:  Solving for p, Initial residual = 0.000498335, Final residual = 9.66544e-07, No Iterations 56
time step continuity errors : sum local = 1.73012e-09, global = -1.77684e-10, cumulative = -5.30234e-10
smoothSolver:  Solving for omega, Initial residual = 0.0431614, Final residual = 2.16969e-08, No Iterations 2
smoothSolver:  Solving for k, Initial residual = 0.696435, Final residual = 9.8289e-09, No Iterations 3
ExecutionTime = 113.855 s  ClockTime = 115 s

Courant Number mean: 0.037478 max: 4.70747
deltaT = 0.205672
Time = 2.943282s

PIMPLE: Iteration 1
smoothSolver:  Solving for Ux, Initial residual = 0.0558293, Final residual = 1.30465e-05, No Iterations 1
smoothSolver:  Solving for Uy, Initial residual = 0.00814128, Final residual = 1.50918e-05, No Iterations 1
smoothSolver:  Solving for Uz, Initial residual = 0.0143234, Final residual = 1.5532e-05, No Iterations 1
GAMG:  Solving for p, Initial residual = 0.0111086, Final residual = 0.000473775, No Iterations 4
GAMG:  Solving for p, Initial residual = 0.00261766, Final residual = 0.000123237, No Iterations 18
GAMG:  Solving for p, Initial residual = 0.00225678, Final residual = 0.000104319, No Iterations 6
time step continuity errors : sum local = 1.81952e-07, global = 2.23006e-08
GAMG:  Solving for p, Initial residual = 0.00788293, Final residual = 0.000360845, No Iterations 4
GAMG:  Solving for p, Initial residual = 0.00193714, Final residual = 8.95206e-05, No Iterations 20
GAMG:  Solving for p, Initial residual = 0.0018886, Final residual = 9.35512e-07, No Iterations 134
time step continuity errors : sum local = 1.62866e-09, global = 2.01869e-10
PIMPLE: Iteration 2
smoothSolver:  Solving for Ux, Initial residual = 0.0171583, Final residual = 1.77834e-08, No Iterations 2
smoothSolver:  Solving for Uy, Initial residual = 0.0026125, Final residual = 8.26166e-08, No Iterations 2
smoothSolver:  Solving for Uz, Initial residual = 0.00438237, Final residual = 5.76883e-08, No Iterations 2
GAMG:  Solving for p, Initial residual = 0.00926736, Final residual = 0.000442544, No Iterations 4
GAMG:  Solving for p, Initial residual = 0.00265296, Final residual = 0.000122855, No Iterations 20
GAMG:  Solving for p, Initial residual = 0.00263026, Final residual = 0.000108348, No Iterations 6
time step continuity errors : sum local = 1.87577e-07, global = 2.3753e-08
GAMG:  Solving for p, Initial residual = 0.00660532, Final residual = 0.000270536, No Iterations 6
GAMG:  Solving for p, Initial residual = 0.00227155, Final residual = 0.000107252, No Iterations 16
GAMG:  Solving for p, Initial residual = 0.00165025, Final residual = 9.65742e-07, No Iterations 138
time step continuity errors : sum local = 1.66897e-09, global = 2.07119e-10, cumulative = -3.23115e-10
smoothSolver:  Solving for omega, Initial residual = 0.039772, Final residual = 1.9181e-08, No Iterations 2
smoothSolver:  Solving for k, Initial residual = 0.56339, Final residual = 8.03005e-09, No Iterations 3
ExecutionTime = 121.032 s  ClockTime = 122 s

Courant Number mean: 0.0380794 max: 4.8035
deltaT = 0.205672
Time = 3.148953s

PIMPLE: Iteration 1
smoothSolver:  Solving for Ux, Initial residual = 0.0533148, Final residual = 1.25412e-05, No Iterations 1
smoothSolver:  Solving for Uy, Initial residual = 0.00807653, Final residual = 1.45692e-05, No Iterations 1
smoothSolver:  Solving for Uz, Initial residual = 0.0134611, Final residual = 1.34769e-05, No Iterations 1
GAMG:  Solving for p, Initial residual = 0.00911029, Final residual = 0.000354735, No Iterations 8
GAMG:  Solving for p, Initial residual = 0.00370802, Final residual = 0.000182142, No Iterations 12
GAMG:  Solving for p, Initial residual = 0.00197465, Final residual = 9.39595e-05, No Iterations 18
time step continuity errors : sum local = 1.60703e-07, global = 1.92782e-08
GAMG:  Solving for p, Initial residual = 0.00651533, Final residual = 0.000266749, No Iterations 8
GAMG:  Solving for p, Initial residual = 0.00274746, Final residual = 0.000127985, No Iterations 14
GAMG:  Solving for p, Initial residual = 0.00162241, Final residual = 9.50412e-07, No Iterations 142
time step continuity errors : sum local = 1.62115e-09, global = 2.00901e-10
PIMPLE: Iteration 2
smoothSolver:  Solving for Ux, Initial residual = 0.0163623, Final residual = 1.70032e-08, No Iterations 2
smoothSolver:  Solving for Uy, Initial residual = 0.00260454, Final residual = 7.87091e-08, No Iterations 2
smoothSolver:  Solving for Uz, Initial residual = 0.00421253, Final residual = 5.46687e-08, No Iterations 2
GAMG:  Solving for p, Initial residual = 0.00802268, Final residual = 0.000348905, No Iterations 8
GAMG:  Solving for p, Initial residual = 0.00392206, Final residual = 0.000181784, No Iterations 12
GAMG:  Solving for p, Initial residual = 0.00208663, Final residual = 0.000103284, No Iterations 16
time step continuity errors : sum local = 1.75208e-07, global = 2.09828e-08
GAMG:  Solving for p, Initial residual = 0.00575333, Final residual = 0.000264703, No Iterations 8
GAMG:  Solving for p, Initial residual = 0.00291534, Final residual = 0.000139931, No Iterations 12
GAMG:  Solving for p, Initial residual = 0.00158487, Final residual = 9.76459e-07, No Iterations 144
time step continuity errors : sum local = 1.65263e-09, global = 2.05048e-10, cumulative = -1.18067e-10
smoothSolver:  Solving for omega, Initial residual = 0.0367764, Final residual = 1.79486e-08, No Iterations 2
smoothSolver:  Solving for k, Initial residual = 0.464753, Final residual = 6.36819e-09, No Iterations 3
ExecutionTime = 128.66 s  ClockTime = 129 s

Courant Number mean: 0.0386541 max: 4.89564
deltaT = 0.205672
Time = 3.354625s

PIMPLE: Iteration 1
smoothSolver:  Solving for Ux, Initial residual = 0.0507931, Final residual = 1.20088e-05, No Iterations 1
smoothSolver:  Solving for Uy, Initial residual = 0.00811662, Final residual = 1.39569e-05, No Iterations 1
smoothSolver:  Solving for Uz, Initial residual = 0.0129657, Final residual = 1.15161e-05, No Iterations 1
GAMG:  Solving for p, Initial residual = 0.00914722, Final residual = 0.000413169, No Iterations 8
GAMG:  Solving for p, Initial residual = 0.00423495, Final residual = 0.000196947, No Iterations 14
GAMG:  Solving for p, Initial residual = 0.00252465, Final residual = 0.000122091, No Iterations 14
time step continuity errors : sum local = 2.05033e-07, global = 2.39682e-08
GAMG:  Solving for p, Initial residual = 0.00653246, Final residual = 0.000313911, No Iterations 8
GAMG:  Solving for p, Initial residual = 0.003182, Final residual = 0.000151992, No Iterations 14
GAMG:  Solving for p, Initial residual = 0.00193697, Final residual = 9.8448e-07, No Iterations 146
time step continuity errors : sum local = 1.64903e-09, global = 2.04925e-10
PIMPLE: Iteration 2
smoothSolver:  Solving for Ux, Initial residual = 0.0155654, Final residual = 1.62172e-08, No Iterations 2
smoothSolver:  Solving for Uy, Initial residual = 0.00261449, Final residual = 7.37457e-08, No Iterations 2
smoothSolver:  Solving for Uz, Initial residual = 0.00408018, Final residual = 5.04002e-08, No Iterations 2
GAMG:  Solving for p, Initial residual = 0.0081435, Final residual = 0.0003936, No Iterations 8
GAMG:  Solving for p, Initial residual = 0.00432954, Final residual = 0.000205131, No Iterations 12
GAMG:  Solving for p, Initial residual = 0.00234377, Final residual = 0.000116599, No Iterations 16
time step continuity errors : sum local = 1.94183e-07, global = 2.32958e-08
GAMG:  Solving for p, Initial residual = 0.00590802, Final residual = 0.000245758, No Iterations 10
GAMG:  Solving for p, Initial residual = 0.00345759, Final residual = 0.000171446, No Iterations 8
GAMG:  Solving for p, Initial residual = 0.00146306, Final residual = 9.47818e-07, No Iterations 150
time step continuity errors : sum local = 1.57479e-09, global = 1.95849e-10, cumulative = 7.77814e-11
smoothSolver:  Solving for omega, Initial residual = 0.0340885, Final residual = 1.67822e-08, No Iterations 2
smoothSolver:  Solving for k, Initial residual = 0.388952, Final residual = 5.38604e-09, No Iterations 3
ExecutionTime = 136.395 s  ClockTime = 137 s

Courant Number mean: 0.0392048 max: 4.98296
deltaT = 0.205672
Time = 3.560297s

PIMPLE: Iteration 1
smoothSolver:  Solving for Ux, Initial residual = 0.0483175, Final residual = 1.15062e-05, No Iterations 1
smoothSolver:  Solving for Uy, Initial residual = 0.00817324, Final residual = 1.33556e-05, No Iterations 1
smoothSolver:  Solving for Uz, Initial residual = 0.0125337, Final residual = 1.0477e-05, No Iterations 1
GAMG:  Solving for p, Initial residual = 0.00894081, Final residual = 0.000386512, No Iterations 10
GAMG:  Solving for p, Initial residual = 0.00505353, Final residual = 0.000252416, No Iterations 10
GAMG:  Solving for p, Initial residual = 0.00244165, Final residual = 0.000121124, No Iterations 20
time step continuity errors : sum local = 1.98831e-07, global = 2.406e-08
GAMG:  Solving for p, Initial residual = 0.00665531, Final residual = 0.000293052, No Iterations 10
GAMG:  Solving for p, Initial residual = 0.00379436, Final residual = 0.00017799, No Iterations 12
GAMG:  Solving for p, Initial residual = 0.00201503, Final residual = 9.97678e-07, No Iterations 150
time step continuity errors : sum local = 1.63173e-09, global = 2.02825e-10
PIMPLE: Iteration 2
smoothSolver:  Solving for Ux, Initial residual = 0.0147861, Final residual = 1.54754e-08, No Iterations 2
smoothSolver:  Solving for Uy, Initial residual = 0.00263086, Final residual = 6.85806e-08, No Iterations 2
smoothSolver:  Solving for Uz, Initial residual = 0.00395924, Final residual = 4.72812e-08, No Iterations 2
GAMG:  Solving for p, Initial residual = 0.00815468, Final residual = 0.000357829, No Iterations 10
GAMG:  Solving for p, Initial residual = 0.00503626, Final residual = 0.000250071, No Iterations 8
GAMG:  Solving for p, Initial residual = 0.0021376, Final residual = 0.000104665, No Iterations 24
time step continuity errors : sum local = 1.70321e-07, global = 2.07218e-08
GAMG:  Solving for p, Initial residual = 0.00628138, Final residual = 0.000269793, No Iterations 10
GAMG:  Solving for p, Initial residual = 0.00373008, Final residual = 0.000177528, No Iterations 10
GAMG:  Solving for p, Initial residual = 0.00175599, Final residual = 9.94453e-07, No Iterations 150
time step continuity errors : sum local = 1.61237e-09, global = 2.00546e-10, cumulative = 2.78327e-10
smoothSolver:  Solving for omega, Initial residual = 0.0316479, Final residual = 1.57221e-08, No Iterations 2
smoothSolver:  Solving for k, Initial residual = 0.327594, Final residual = 4.91119e-09, No Iterations 3
ExecutionTime = 144.401 s  ClockTime = 145 s

Courant Number mean: 0.0397318 max: 5.06622
deltaT = 0.179963
Time = 3.74026s

PIMPLE: Iteration 1
smoothSolver:  Solving for Ux, Initial residual = 0.0404974, Final residual = 7.94028e-06, No Iterations 1
smoothSolver:  Solving for Uy, Initial residual = 0.00723363, Final residual = 9.352e-06, No Iterations 1
smoothSolver:  Solving for Uz, Initial residual = 0.0107943, Final residual = 7.77134e-06, No Iterations 1
GAMG:  Solving for p, Initial residual = 0.0163898, Final residual = 0.000646604, No Iterations 3
GAMG:  Solving for p, Initial residual = 0.00563338, Final residual = 0.000212511, No Iterations 3
GAMG:  Solving for p, Initial residual = 0.00117626, Final residual = 5.72979e-05, No Iterations 6
time step continuity errors : sum local = 7.55939e-08, global = 2.68358e-09
GAMG:  Solving for p, Initial residual = 0.0115195, Final residual = 0.000461229, No Iterations 3
GAMG:  Solving for p, Initial residual = 0.00394324, Final residual = 0.000184633, No Iterations 3
GAMG:  Solving for p, Initial residual = 0.000940395, Final residual = 9.34423e-07, No Iterations 85
time step continuity errors : sum local = 1.23212e-09, global = 1.52838e-10
PIMPLE: Iteration 2
smoothSolver:  Solving for Ux, Initial residual = 0.0124655, Final residual = 8.91431e-09, No Iterations 2
smoothSolver:  Solving for Uy, Initial residual = 0.00223287, Final residual = 4.00638e-08, No Iterations 2
smoothSolver:  Solving for Uz, Initial residual = 0.00344302, Final residual = 2.91183e-08, No Iterations 2
GAMG:  Solving for p, Initial residual = 0.0114928, Final residual = 0.000500805, No Iterations 3
GAMG:  Solving for p, Initial residual = 0.0038785, Final residual = 0.000147898, No Iterations 5
GAMG:  Solving for p, Initial residual = 0.000929478, Final residual = 4.53552e-05, No Iterations 14
time step continuity errors : sum local = 5.93674e-08, global = 6.54866e-09
GAMG:  Solving for p, Initial residual = 0.00814476, Final residual = 0.000355105, No Iterations 3
GAMG:  Solving for p, Initial residual = 0.00253051, Final residual = 0.000101009, No Iterations 7
GAMG:  Solving for p, Initial residual = 0.000963573, Final residual = 9.70472e-07, No Iterations 124
time step continuity errors : sum local = 1.27041e-09, global = 1.57525e-10, cumulative = 4.35851e-10
smoothSolver:  Solving for omega, Initial residual = 0.0261275, Final residual = 8.97206e-09, No Iterations 2
smoothSolver:  Solving for k, Initial residual = 0.255528, Final residual = 2.44266e-09, No Iterations 3
ExecutionTime = 149.587 s  ClockTime = 150 s

Courant Number mean: 0.0351764 max: 4.49577
deltaT = 0.179963
Time = 3.920223s

PIMPLE: Iteration 1
smoothSolver:  Solving for Ux, Initial residual = 0.0393272, Final residual = 7.44791e-06, No Iterations 1
smoothSolver:  Solving for Uy, Initial residual = 0.00674924, Final residual = 8.63993e-06, No Iterations 1
smoothSolver:  Solving for Uz, Initial residual = 0.0108056, Final residual = 6.97792e-06, No Iterations 1
GAMG:  Solving for p, Initial residual = 0.00992222, Final residual = 0.000466962, No Iterations 6
GAMG:  Solving for p, Initial residual = 0.00483826, Final residual = 0.000235393, No Iterations 14
GAMG:  Solving for p, Initial residual = 0.00301924, Final residual = 0.000147598, No Iterations 14
time step continuity errors : sum local = 1.84766e-07, global = 2.147e-08
GAMG:  Solving for p, Initial residual = 0.00722502, Final residual = 0.000359653, No Iterations 6
GAMG:  Solving for p, Initial residual = 0.00358258, Final residual = 0.000170071, No Iterations 16
GAMG:  Solving for p, Initial residual = 0.00252825, Final residual = 9.51384e-07, No Iterations 152
time step continuity errors : sum local = 1.18713e-09, global = 1.46784e-10
PIMPLE: Iteration 2
smoothSolver:  Solving for Ux, Initial residual = 0.011984, Final residual = 7.96619e-09, No Iterations 2
smoothSolver:  Solving for Uy, Initial residual = 0.00217004, Final residual = 3.55229e-08, No Iterations 2
smoothSolver:  Solving for Uz, Initial residual = 0.00344276, Final residual = 2.70515e-08, No Iterations 2
GAMG:  Solving for p, Initial residual = 0.00851599, Final residual = 0.000369548, No Iterations 8
GAMG:  Solving for p, Initial residual = 0.00454846, Final residual = 0.000210916, No Iterations 14
GAMG:  Solving for p, Initial residual = 0.00289083, Final residual = 0.000135771, No Iterations 14
time step continuity errors : sum local = 1.67904e-07, global = 1.9649e-08
GAMG:  Solving for p, Initial residual = 0.00626249, Final residual = 0.000290064, No Iterations 8
GAMG:  Solving for p, Initial residual = 0.00340731, Final residual = 0.000165425, No Iterations 14
GAMG:  Solving for p, Initial residual = 0.00222396, Final residual = 9.90818e-07, No Iterations 150
time step continuity errors : sum local = 1.22198e-09, global = 1.51077e-10, cumulative = 5.86928e-10
smoothSolver:  Solving for omega, Initial residual = 0.0244193, Final residual = 7.72491e-09, No Iterations 2
smoothSolver:  Solving for k, Initial residual = 0.222581, Final residual = 2.23836e-09, No Iterations 3
ExecutionTime = 157.459 s  ClockTime = 158 s

Courant Number mean: 0.0355633 max: 4.55514
deltaT = 0.179963
Time = 4.100186s

PIMPLE: Iteration 1
smoothSolver:  Solving for Ux, Initial residual = 0.0375185, Final residual = 7.158e-06, No Iterations 1
smoothSolver:  Solving for Uy, Initial residual = 0.0068658, Final residual = 8.34431e-06, No Iterations 1
smoothSolver:  Solving for Uz, Initial residual = 0.0109148, Final residual = 7.14996e-06, No Iterations 1
GAMG:  Solving for p, Initial residual = 0.0102447, Final residual = 0.000489657, No Iterations 8
GAMG:  Solving for p, Initial residual = 0.00517005, Final residual = 0.000242163, No Iterations 14
GAMG:  Solving for p, Initial residual = 0.00314472, Final residual = 0.000151481, No Iterations 14
time step continuity errors : sum local = 1.83963e-07, global = 2.14395e-08
GAMG:  Solving for p, Initial residual = 0.00753425, Final residual = 0.00037378, No Iterations 8
GAMG:  Solving for p, Initial residual = 0.00392928, Final residual = 0.000187109, No Iterations 14
GAMG:  Solving for p, Initial residual = 0.00241465, Final residual = 9.44565e-07, No Iterations 154
time step continuity errors : sum local = 1.14344e-09, global = 1.41292e-10
PIMPLE: Iteration 2
smoothSolver:  Solving for Ux, Initial residual = 0.0114272, Final residual = 7.6419e-09, No Iterations 2
smoothSolver:  Solving for Uy, Initial residual = 0.00222879, Final residual = 3.39884e-08, No Iterations 2
smoothSolver:  Solving for Uz, Initial residual = 0.00344136, Final residual = 2.71744e-08, No Iterations 2
GAMG:  Solving for p, Initial residual = 0.00974172, Final residual = 0.000443207, No Iterations 8
GAMG:  Solving for p, Initial residual = 0.0050546, Final residual = 0.000236855, No Iterations 12
GAMG:  Solving for p, Initial residual = 0.00273838, Final residual = 0.000135447, No Iterations 16
time step continuity errors : sum local = 1.62668e-07, global = 1.94017e-08
GAMG:  Solving for p, Initial residual = 0.00724427, Final residual = 0.000337935, No Iterations 8
GAMG:  Solving for p, Initial residual = 0.00378634, Final residual = 0.000182796, No Iterations 12
GAMG:  Solving for p, Initial residual = 0.00208893, Final residual = 9.83421e-07, No Iterations 152
time step continuity errors : sum local = 1.17751e-09, global = 1.45478e-10, cumulative = 7.32406e-10
smoothSolver:  Solving for omega, Initial residual = 0.0229259, Final residual = 7.2281e-09, No Iterations 2
smoothSolver:  Solving for k, Initial residual = 0.195986, Final residual = 1.77676e-09, No Iterations 3
ExecutionTime = 165.393 s  ClockTime = 166 s

Courant Number mean: 0.0359294 max: 4.61133
deltaT = 0.179963
Time = 4.280149s

PIMPLE: Iteration 1
smoothSolver:  Solving for Ux, Initial residual = 0.0357753, Final residual = 6.88258e-06, No Iterations 1
smoothSolver:  Solving for Uy, Initial residual = 0.00719159, Final residual = 8.11356e-06, No Iterations 1
smoothSolver:  Solving for Uz, Initial residual = 0.0108216, Final residual = 7.87818e-06, No Iterations 1
GAMG:  Solving for p, Initial residual = 0.0111459, Final residual = 0.000505889, No Iterations 8
GAMG:  Solving for p, Initial residual = 0.00545294, Final residual = 0.000269449, No Iterations 12
GAMG:  Solving for p, Initial residual = 0.00302861, Final residual = 0.000141947, No Iterations 18
time step continuity errors : sum local = 1.67603e-07, global = 2.0103e-08
GAMG:  Solving for p, Initial residual = 0.00830452, Final residual = 0.000384477, No Iterations 8
GAMG:  Solving for p, Initial residual = 0.00405795, Final residual = 0.000191185, No Iterations 14
GAMG:  Solving for p, Initial residual = 0.00249464, Final residual = 9.70025e-07, No Iterations 154
time step continuity errors : sum local = 1.14078e-09, global = 1.4086e-10
PIMPLE: Iteration 2
smoothSolver:  Solving for Ux, Initial residual = 0.010891, Final residual = 7.31578e-09, No Iterations 2
smoothSolver:  Solving for Uy, Initial residual = 0.0023127, Final residual = 3.27135e-08, No Iterations 2
smoothSolver:  Solving for Uz, Initial residual = 0.0034699, Final residual = 2.77046e-08, No Iterations 2
GAMG:  Solving for p, Initial residual = 0.0102553, Final residual = 0.000456915, No Iterations 8
GAMG:  Solving for p, Initial residual = 0.00526778, Final residual = 0.000260432, No Iterations 10
GAMG:  Solving for p, Initial residual = 0.00259352, Final residual = 0.000127163, No Iterations 20
time step continuity errors : sum local = 1.48617e-07, global = 1.7891e-08
GAMG:  Solving for p, Initial residual = 0.00776102, Final residual = 0.00034678, No Iterations 8
GAMG:  Solving for p, Initial residual = 0.00388118, Final residual = 0.00018612, No Iterations 12
GAMG:  Solving for p, Initial residual = 0.00214683, Final residual = 9.40707e-07, No Iterations 154
time step continuity errors : sum local = 1.09526e-09, global = 1.35262e-10, cumulative = 8.67668e-10
smoothSolver:  Solving for omega, Initial residual = 0.0215754, Final residual = 6.78053e-09, No Iterations 2
smoothSolver:  Solving for k, Initial residual = 0.173862, Final residual = 9.17429e-08, No Iterations 2
ExecutionTime = 173.435 s  ClockTime = 174 s

Courant Number mean: 0.0362813 max: 4.66473
deltaT = 0.179963
Time = 4.460111s

PIMPLE: Iteration 1
smoothSolver:  Solving for Ux, Initial residual = 0.0341254, Final residual = 6.59913e-06, No Iterations 1
smoothSolver:  Solving for Uy, Initial residual = 0.00741101, Final residual = 7.91919e-06, No Iterations 1
smoothSolver:  Solving for Uz, Initial residual = 0.0108641, Final residual = 8.74793e-06, No Iterations 1
GAMG:  Solving for p, Initial residual = 0.0106644, Final residual = 0.000444288, No Iterations 10
GAMG:  Solving for p, Initial residual = 0.00624109, Final residual = 0.000295736, No Iterations 10
GAMG:  Solving for p, Initial residual = 0.00298193, Final residual = 0.000144093, No Iterations 20
time step continuity errors : sum local = 1.65303e-07, global = 1.9928e-08
GAMG:  Solving for p, Initial residual = 0.00807334, Final residual = 0.000338709, No Iterations 10
GAMG:  Solving for p, Initial residual = 0.00467376, Final residual = 0.0002263, No Iterations 10
GAMG:  Solving for p, Initial residual = 0.00225163, Final residual = 9.75042e-07, No Iterations 158
time step continuity errors : sum local = 1.11437e-09, global = 1.37571e-10
PIMPLE: Iteration 2
smoothSolver:  Solving for Ux, Initial residual = 0.0103745, Final residual = 6.98664e-09, No Iterations 2
smoothSolver:  Solving for Uy, Initial residual = 0.00235703, Final residual = 3.18933e-08, No Iterations 2
smoothSolver:  Solving for Uz, Initial residual = 0.00351012, Final residual = 2.81058e-08, No Iterations 2
GAMG:  Solving for p, Initial residual = 0.00989944, Final residual = 0.000484176, No Iterations 8
GAMG:  Solving for p, Initial residual = 0.00555396, Final residual = 0.00026089, No Iterations 12
GAMG:  Solving for p, Initial residual = 0.00304043, Final residual = 0.000150227, No Iterations 16
time step continuity errors : sum local = 1.7054e-07, global = 2.03732e-08
GAMG:  Solving for p, Initial residual = 0.00744052, Final residual = 0.00037135, No Iterations 8
GAMG:  Solving for p, Initial residual = 0.00417666, Final residual = 0.0002021, No Iterations 12
GAMG:  Solving for p, Initial residual = 0.00232285, Final residual = 9.60778e-07, No Iterations 156
time step continuity errors : sum local = 1.0871e-09, global = 1.34274e-10, cumulative = 1.00194e-09
smoothSolver:  Solving for omega, Initial residual = 0.0203291, Final residual = 6.38975e-09, No Iterations 2
smoothSolver:  Solving for k, Initial residual = 0.155182, Final residual = 8.15382e-08, No Iterations 2
ExecutionTime = 181.543 s  ClockTime = 182 s

Courant Number mean: 0.0366212 max: 4.71551
deltaT = 0.179963
Time = 4.640074s

PIMPLE: Iteration 1
smoothSolver:  Solving for Ux, Initial residual = 0.032515, Final residual = 6.31372e-06, No Iterations 1
smoothSolver:  Solving for Uy, Initial residual = 0.00744846, Final residual = 7.72071e-06, No Iterations 1
smoothSolver:  Solving for Uz, Initial residual = 0.0109666, Final residual = 9.37889e-06, No Iterations 1
GAMG:  Solving for p, Initial residual = 0.010189, Final residual = 0.000470072, No Iterations 10
GAMG:  Solving for p, Initial residual = 0.00664017, Final residual = 0.00031626, No Iterations 10
GAMG:  Solving for p, Initial residual = 0.00317563, Final residual = 0.000154734, No Iterations 20
time step continuity errors : sum local = 1.72444e-07, global = 2.08062e-08
GAMG:  Solving for p, Initial residual = 0.0078163, Final residual = 0.000359085, No Iterations 10
GAMG:  Solving for p, Initial residual = 0.00499042, Final residual = 0.000242295, No Iterations 10
GAMG:  Solving for p, Initial residual = 0.00239965, Final residual = 9.80773e-07, No Iterations 160
time step continuity errors : sum local = 1.08863e-09, global = 1.34409e-10
PIMPLE: Iteration 2
smoothSolver:  Solving for Ux, Initial residual = 0.00987222, Final residual = 6.66575e-09, No Iterations 2
smoothSolver:  Solving for Uy, Initial residual = 0.00235135, Final residual = 3.1032e-08, No Iterations 2
smoothSolver:  Solving for Uz, Initial residual = 0.00356068, Final residual = 2.83463e-08, No Iterations 2
GAMG:  Solving for p, Initial residual = 0.00959686, Final residual = 0.00041851, No Iterations 10
GAMG:  Solving for p, Initial residual = 0.00623893, Final residual = 0.000299313, No Iterations 8
GAMG:  Solving for p, Initial residual = 0.00263686, Final residual = 0.000127686, No Iterations 24
time step continuity errors : sum local = 1.40829e-07, global = 1.70509e-08
GAMG:  Solving for p, Initial residual = 0.00756038, Final residual = 0.000318007, No Iterations 10
GAMG:  Solving for p, Initial residual = 0.00462269, Final residual = 0.000227842, No Iterations 8
GAMG:  Solving for p, Initial residual = 0.00196308, Final residual = 9.97672e-07, No Iterations 158
time step continuity errors : sum local = 1.09618e-09, global = 1.35393e-10, cumulative = 1.13734e-09
smoothSolver:  Solving for omega, Initial residual = 0.019174, Final residual = 6.01367e-09, No Iterations 2
smoothSolver:  Solving for k, Initial residual = 0.139257, Final residual = 7.29034e-08, No Iterations 2
ExecutionTime = 189.783 s  ClockTime = 190 s

Courant Number mean: 0.0369483 max: 4.76361
deltaT = 0.179963
Time = 4.820037s

PIMPLE: Iteration 1
smoothSolver:  Solving for Ux, Initial residual = 0.0309436, Final residual = 6.02877e-06, No Iterations 1
smoothSolver:  Solving for Uy, Initial residual = 0.00735333, Final residual = 7.49621e-06, No Iterations 1
smoothSolver:  Solving for Uz, Initial residual = 0.0110999, Final residual = 9.66012e-06, No Iterations 1
GAMG:  Solving for p, Initial residual = 0.0101867, Final residual = 0.000492242, No Iterations 10
GAMG:  Solving for p, Initial residual = 0.00693241, Final residual = 0.000332833, No Iterations 10
GAMG:  Solving for p, Initial residual = 0.00332135, Final residual = 0.000163292, No Iterations 20
time step continuity errors : sum local = 1.76576e-07, global = 2.13096e-08
GAMG:  Solving for p, Initial residual = 0.00786948, Final residual = 0.000376328, No Iterations 10
GAMG:  Solving for p, Initial residual = 0.00522095, Final residual = 0.000255131, No Iterations 10
GAMG:  Solving for p, Initial residual = 0.00251152, Final residual = 9.67914e-07, No Iterations 162
time step continuity errors : sum local = 1.04221e-09, global = 1.28688e-10
PIMPLE: Iteration 2
smoothSolver:  Solving for Ux, Initial residual = 0.00938365, Final residual = 6.34446e-09, No Iterations 2
smoothSolver:  Solving for Uy, Initial residual = 0.00231191, Final residual = 3.00591e-08, No Iterations 2
smoothSolver:  Solving for Uz, Initial residual = 0.00359012, Final residual = 2.82113e-08, No Iterations 2
GAMG:  Solving for p, Initial residual = 0.00974442, Final residual = 0.000435129, No Iterations 10
GAMG:  Solving for p, Initial residual = 0.0064449, Final residual = 0.000312376, No Iterations 8
GAMG:  Solving for p, Initial residual = 0.00272561, Final residual = 0.000133615, No Iterations 24
time step continuity errors : sum local = 1.42936e-07, global = 1.73118e-08
GAMG:  Solving for p, Initial residual = 0.00772117, Final residual = 0.000330875, No Iterations 10
GAMG:  Solving for p, Initial residual = 0.0047844, Final residual = 0.000237835, No Iterations 8
GAMG:  Solving for p, Initial residual = 0.00203139, Final residual = 9.75301e-07, No Iterations 160
time step continuity errors : sum local = 1.03918e-09, global = 1.28359e-10, cumulative = 1.26569e-09
smoothSolver:  Solving for omega, Initial residual = 0.018103, Final residual = 5.67151e-09, No Iterations 2
smoothSolver:  Solving for k, Initial residual = 0.125571, Final residual = 6.58794e-08, No Iterations 2
ExecutionTime = 198.111 s  ClockTime = 199 s

Courant Number mean: 0.037262 max: 4.80875
deltaT = 0.179963
Time = 5s

PIMPLE: Iteration 1
smoothSolver:  Solving for Ux, Initial residual = 0.0294157, Final residual = 5.74773e-06, No Iterations 1
smoothSolver:  Solving for Uy, Initial residual = 0.0071847, Final residual = 7.25504e-06, No Iterations 1
smoothSolver:  Solving for Uz, Initial residual = 0.0111788, Final residual = 9.72828e-06, No Iterations 1
GAMG:  Solving for p, Initial residual = 0.0107161, Final residual = 0.000508563, No Iterations 10
GAMG:  Solving for p, Initial residual = 0.00714911, Final residual = 0.000344611, No Iterations 10
GAMG:  Solving for p, Initial residual = 0.00343181, Final residual = 0.000169307, No Iterations 20
time step continuity errors : sum local = 1.77366e-07, global = 2.14069e-08
GAMG:  Solving for p, Initial residual = 0.00828502, Final residual = 0.00038894, No Iterations 10
GAMG:  Solving for p, Initial residual = 0.00539026, Final residual = 0.000264213, No Iterations 10
GAMG:  Solving for p, Initial residual = 0.00259584, Final residual = 9.37228e-07, No Iterations 164
time step continuity errors : sum local = 9.77514e-10, global = 1.2071e-10
PIMPLE: Iteration 2
smoothSolver:  Solving for Ux, Initial residual = 0.00890779, Final residual = 6.03266e-09, No Iterations 2
smoothSolver:  Solving for Uy, Initial residual = 0.00225979, Final residual = 2.9024e-08, No Iterations 2
smoothSolver:  Solving for Uz, Initial residual = 0.0036036, Final residual = 2.78328e-08, No Iterations 2
GAMG:  Solving for p, Initial residual = 0.0102441, Final residual = 0.000446175, No Iterations 10
GAMG:  Solving for p, Initial residual = 0.00659964, Final residual = 0.00032085, No Iterations 8
GAMG:  Solving for p, Initial residual = 0.00279155, Final residual = 0.000137288, No Iterations 24
time step continuity errors : sum local = 1.42227e-07, global = 1.72266e-08
GAMG:  Solving for p, Initial residual = 0.00810459, Final residual = 0.000339346, No Iterations 10
GAMG:  Solving for p, Initial residual = 0.00490374, Final residual = 0.000244279, No Iterations 8
GAMG:  Solving for p, Initial residual = 0.00208126, Final residual = 9.35167e-07, No Iterations 162
time step continuity errors : sum local = 9.64844e-10, global = 1.1919e-10, cumulative = 1.38488e-09
smoothSolver:  Solving for omega, Initial residual = 0.0171094, Final residual = 5.33867e-09, No Iterations 2
smoothSolver:  Solving for k, Initial residual = 0.113729, Final residual = 5.94437e-08, No Iterations 2
ExecutionTime = 207.768 s  ClockTime = 209 s

Courant Number mean: 0.0375618 max: 4.8505
deltaT = 0.185185
Time = 5.185185s

PIMPLE: Iteration 1
smoothSolver:  Solving for Ux, Initial residual = 0.0287052, Final residual = 5.87784e-06, No Iterations 1
smoothSolver:  Solving for Uy, Initial residual = 0.00721128, Final residual = 7.51929e-06, No Iterations 1
smoothSolver:  Solving for Uz, Initial residual = 0.0115172, Final residual = 1.04119e-05, No Iterations 1
GAMG:  Solving for p, Initial residual = 0.0133143, Final residual = 0.00060387, No Iterations 10
GAMG:  Solving for p, Initial residual = 0.00879086, Final residual = 0.000438393, No Iterations 8
GAMG:  Solving for p, Initial residual = 0.00380356, Final residual = 0.000185775, No Iterations 24
time step continuity errors : sum local = 1.9658e-07, global = 2.37398e-08
GAMG:  Solving for p, Initial residual = 0.0101056, Final residual = 0.000459987, No Iterations 10
GAMG:  Solving for p, Initial residual = 0.0065661, Final residual = 0.000313077, No Iterations 10
GAMG:  Solving for p, Initial residual = 0.0031391, Final residual = 9.66927e-07, No Iterations 168
time step continuity errors : sum local = 1.01654e-09, global = 1.25624e-10
PIMPLE: Iteration 2
smoothSolver:  Solving for Ux, Initial residual = 0.00866765, Final residual = 6.38227e-09, No Iterations 2
smoothSolver:  Solving for Uy, Initial residual = 0.00228749, Final residual = 3.09274e-08, No Iterations 2
smoothSolver:  Solving for Uz, Initial residual = 0.00372166, Final residual = 3.02503e-08, No Iterations 2
GAMG:  Solving for p, Initial residual = 0.012078, Final residual = 0.000521387, No Iterations 10
GAMG:  Solving for p, Initial residual = 0.00786808, Final residual = 0.00037648, No Iterations 8
GAMG:  Solving for p, Initial residual = 0.00333666, Final residual = 0.000160851, No Iterations 24
time step continuity errors : sum local = 1.67879e-07, global = 2.03347e-08
GAMG:  Solving for p, Initial residual = 0.00938366, Final residual = 0.000396808, No Iterations 10
GAMG:  Solving for p, Initial residual = 0.0058463, Final residual = 0.000286671, No Iterations 8
GAMG:  Solving for p, Initial residual = 0.00248447, Final residual = 9.52109e-07, No Iterations 166
time step continuity errors : sum local = 9.88951e-10, global = 1.22254e-10, cumulative = 1.50714e-09
smoothSolver:  Solving for omega, Initial residual = 0.0166122, Final residual = 5.58784e-09, No Iterations 2
smoothSolver:  Solving for k, Initial residual = 0.105849, Final residual = 5.93897e-08, No Iterations 2
ExecutionTime = 216.342 s  ClockTime = 218 s

Courant Number mean: 0.0389504 max: 5.0316
deltaT = 0.178326
Time = 5.363512s

PIMPLE: Iteration 1
smoothSolver:  Solving for Ux, Initial residual = 0.0261493, Final residual = 5.12333e-06, No Iterations 1
smoothSolver:  Solving for Uy, Initial residual = 0.00690442, Final residual = 6.73863e-06, No Iterations 1
smoothSolver:  Solving for Uz, Initial residual = 0.0112114, Final residual = 9.84943e-06, No Iterations 1
GAMG:  Solving for p, Initial residual = 0.011108, Final residual = 0.000535321, No Iterations 8
GAMG:  Solving for p, Initial residual = 0.00569017, Final residual = 0.000273685, No Iterations 14
GAMG:  Solving for p, Initial residual = 0.00354312, Final residual = 0.000172798, No Iterations 14
time step continuity errors : sum local = 1.67774e-07, global = 1.96414e-08
GAMG:  Solving for p, Initial residual = 0.00834761, Final residual = 0.000413526, No Iterations 8
GAMG:  Solving for p, Initial residual = 0.00435331, Final residual = 0.000212896, No Iterations 14
GAMG:  Solving for p, Initial residual = 0.00273031, Final residual = 9.57909e-07, No Iterations 158
time step continuity errors : sum local = 9.26739e-10, global = 1.14472e-10
PIMPLE: Iteration 2
smoothSolver:  Solving for Ux, Initial residual = 0.0079152, Final residual = 5.32791e-09, No Iterations 2
smoothSolver:  Solving for Uy, Initial residual = 0.00215236, Final residual = 2.65492e-08, No Iterations 2
smoothSolver:  Solving for Uz, Initial residual = 0.00357827, Final residual = 2.68494e-08, No Iterations 2
GAMG:  Solving for p, Initial residual = 0.0103961, Final residual = 0.00048817, No Iterations 8
GAMG:  Solving for p, Initial residual = 0.00555258, Final residual = 0.000268857, No Iterations 12
GAMG:  Solving for p, Initial residual = 0.00307245, Final residual = 0.000144098, No Iterations 18
time step continuity errors : sum local = 1.38368e-07, global = 1.67146e-08
GAMG:  Solving for p, Initial residual = 0.00795559, Final residual = 0.000374373, No Iterations 8
GAMG:  Solving for p, Initial residual = 0.0041694, Final residual = 0.00020754, No Iterations 12
GAMG:  Solving for p, Initial residual = 0.00233887, Final residual = 9.8806e-07, No Iterations 156
time step continuity errors : sum local = 9.45513e-10, global = 1.16837e-10, cumulative = 1.62397e-09
smoothSolver:  Solving for omega, Initial residual = 0.0151976, Final residual = 4.67783e-09, No Iterations 2
smoothSolver:  Solving for k, Initial residual = 0.0935277, Final residual = 4.76953e-08, No Iterations 2
ExecutionTime = 224.441 s  ClockTime = 226 s

Courant Number mean: 0.0377773 max: 4.87942
deltaT = 0.178326
Time = 5.541838s

PIMPLE: Iteration 1
smoothSolver:  Solving for Ux, Initial residual = 0.0249125, Final residual = 4.84563e-06, No Iterations 1
smoothSolver:  Solving for Uy, Initial residual = 0.00663855, Final residual = 6.4564e-06, No Iterations 1
smoothSolver:  Solving for Uz, Initial residual = 0.0110889, Final residual = 9.46259e-06, No Iterations 1
GAMG:  Solving for p, Initial residual = 0.0108313, Final residual = 0.000474452, No Iterations 12
GAMG:  Solving for p, Initial residual = 0.00826641, Final residual = 0.000401904, No Iterations 6
GAMG:  Solving for p, Initial residual = 0.00312143, Final residual = 0.000147325, No Iterations 28
time step continuity errors : sum local = 1.37414e-07, global = 1.6664e-08
GAMG:  Solving for p, Initial residual = 0.00883569, Final residual = 0.000413768, No Iterations 10
GAMG:  Solving for p, Initial residual = 0.00576629, Final residual = 0.000282382, No Iterations 10
GAMG:  Solving for p, Initial residual = 0.00277335, Final residual = 9.99698e-07, No Iterations 164
time step continuity errors : sum local = 9.27162e-10, global = 1.14502e-10
PIMPLE: Iteration 2
smoothSolver:  Solving for Ux, Initial residual = 0.00751454, Final residual = 4.95857e-09, No Iterations 2
smoothSolver:  Solving for Uy, Initial residual = 0.00208881, Final residual = 2.51242e-08, No Iterations 2
smoothSolver:  Solving for Uz, Initial residual = 0.00354483, Final residual = 2.60887e-08, No Iterations 2
GAMG:  Solving for p, Initial residual = 0.0106275, Final residual = 0.000480738, No Iterations 10
GAMG:  Solving for p, Initial residual = 0.00721812, Final residual = 0.000347726, No Iterations 8
GAMG:  Solving for p, Initial residual = 0.00304152, Final residual = 0.000148529, No Iterations 24
time step continuity errors : sum local = 1.36706e-07, global = 1.65533e-08
GAMG:  Solving for p, Initial residual = 0.00848143, Final residual = 0.000365933, No Iterations 10
GAMG:  Solving for p, Initial residual = 0.00536858, Final residual = 0.00026477, No Iterations 8
[...]
GAMG:  Solving for p, Initial residual = 0.000311545, Final residual = 1.46683e-05, No Iterations 7
GAMG:  Solving for p, Initial residual = 0.000110814, Final residual = 9.61433e-07, No Iterations 36
time step continuity errors : sum local = 1.05297e-10, global = 1.10352e-11
PIMPLE: Iteration 2
smoothSolver:  Solving for Ux, Initial residual = 5.40307e-05, Final residual = 2.51174e-08, No Iterations 1
smoothSolver:  Solving for Uy, Initial residual = 0.000534612, Final residual = 3.67027e-09, No Iterations 2
smoothSolver:  Solving for Uz, Initial residual = 0.00104797, Final residual = 3.34926e-09, No Iterations 2
GAMG:  Solving for p, Initial residual = 0.00201831, Final residual = 9.6649e-05, No Iterations 4
GAMG:  Solving for p, Initial residual = 0.000556073, Final residual = 2.54156e-05, No Iterations 11
GAMG:  Solving for p, Initial residual = 0.000303028, Final residual = 1.43966e-05, No Iterations 10
time step continuity errors : sum local = 1.57615e-09, global = 1.8653e-10
GAMG:  Solving for p, Initial residual = 0.00142477, Final residual = 6.79093e-05, No Iterations 4
GAMG:  Solving for p, Initial residual = 0.000394268, Final residual = 1.82111e-05, No Iterations 12
GAMG:  Solving for p, Initial residual = 0.000232632, Final residual = 9.35547e-07, No Iterations 77
time step continuity errors : sum local = 1.0242e-10, global = -1.2907e-11, cumulative = -1.43733e-09
smoothSolver:  Solving for omega, Initial residual = 0.00169441, Final residual = 1.94893e-09, No Iterations 2
smoothSolver:  Solving for k, Initial residual = 0.000216114, Final residual = 8.6184e-10, No Iterations 2
bounding k, min: -0.0869622 max: 10.1917 average: 1.22981
ExecutionTime = 3697.29 s  ClockTime = 3730 s

Courant Number mean: 0.0843596 max: 4.94168
deltaT = 0.384615
Time = 197.692308s

PIMPLE: Iteration 1
smoothSolver:  Solving for Ux, Initial residual = 0.000177552, Final residual = 7.73101e-08, No Iterations 1
smoothSolver:  Solving for Uy, Initial residual = 0.00175112, Final residual = 1.15908e-06, No Iterations 1
smoothSolver:  Solving for Uz, Initial residual = 0.00344525, Final residual = 1.64671e-06, No Iterations 1
GAMG:  Solving for p, Initial residual = 0.00194494, Final residual = 7.44028e-05, No Iterations 4
GAMG:  Solving for p, Initial residual = 0.00044488, Final residual = 1.97754e-05, No Iterations 7
GAMG:  Solving for p, Initial residual = 0.000153828, Final residual = 7.35902e-06, No Iterations 10
time step continuity errors : sum local = 8.05654e-10, global = 6.74734e-11
GAMG:  Solving for p, Initial residual = 0.00136421, Final residual = 5.23762e-05, No Iterations 4
GAMG:  Solving for p, Initial residual = 0.000307535, Final residual = 1.43795e-05, No Iterations 7
GAMG:  Solving for p, Initial residual = 0.000108622, Final residual = 9.38883e-07, No Iterations 36
time step continuity errors : sum local = 1.02784e-10, global = 1.07591e-11
PIMPLE: Iteration 2
smoothSolver:  Solving for Ux, Initial residual = 5.39552e-05, Final residual = 2.49796e-08, No Iterations 1
smoothSolver:  Solving for Uy, Initial residual = 0.000534698, Final residual = 3.68183e-09, No Iterations 2
smoothSolver:  Solving for Uz, Initial residual = 0.0010464, Final residual = 3.34866e-09, No Iterations 2
GAMG:  Solving for p, Initial residual = 0.0020025, Final residual = 9.40756e-05, No Iterations 4
GAMG:  Solving for p, Initial residual = 0.000557834, Final residual = 2.50112e-05, No Iterations 11
GAMG:  Solving for p, Initial residual = 0.000294657, Final residual = 1.41895e-05, No Iterations 10
time step continuity errors : sum local = 1.55284e-09, global = 1.84422e-10
GAMG:  Solving for p, Initial residual = 0.00141312, Final residual = 6.5785e-05, No Iterations 4
GAMG:  Solving for p, Initial residual = 0.00039566, Final residual = 1.79569e-05, No Iterations 12
GAMG:  Solving for p, Initial residual = 0.000225366, Final residual = 9.9089e-07, No Iterations 75
time step continuity errors : sum local = 1.08434e-10, global = -1.36741e-11, cumulative = -1.451e-09
smoothSolver:  Solving for omega, Initial residual = 0.00169467, Final residual = 1.95063e-09, No Iterations 2
smoothSolver:  Solving for k, Initial residual = 0.000215611, Final residual = 8.63382e-10, No Iterations 2
ExecutionTime = 3701.19 s  ClockTime = 3734 s

Courant Number mean: 0.0843575 max: 4.94143
deltaT = 0.384615
Time = 198.076923s

PIMPLE: Iteration 1
smoothSolver:  Solving for Ux, Initial residual = 0.000177315, Final residual = 7.69029e-08, No Iterations 1
smoothSolver:  Solving for Uy, Initial residual = 0.00175152, Final residual = 1.15752e-06, No Iterations 1
smoothSolver:  Solving for Uz, Initial residual = 0.00344033, Final residual = 1.63939e-06, No Iterations 1
GAMG:  Solving for p, Initial residual = 0.00192217, Final residual = 7.21457e-05, No Iterations 4
GAMG:  Solving for p, Initial residual = 0.000441041, Final residual = 1.95791e-05, No Iterations 7
GAMG:  Solving for p, Initial residual = 0.000151704, Final residual = 7.25428e-06, No Iterations 10
time step continuity errors : sum local = 7.93868e-10, global = 6.69144e-11
GAMG:  Solving for p, Initial residual = 0.00134816, Final residual = 5.07383e-05, No Iterations 4
GAMG:  Solving for p, Initial residual = 0.00030486, Final residual = 1.42312e-05, No Iterations 7
GAMG:  Solving for p, Initial residual = 0.000107118, Final residual = 9.25121e-07, No Iterations 36
time step continuity errors : sum local = 1.01237e-10, global = 1.05902e-11
PIMPLE: Iteration 2
smoothSolver:  Solving for Ux, Initial residual = 5.38807e-05, Final residual = 2.48425e-08, No Iterations 1
smoothSolver:  Solving for Uy, Initial residual = 0.000534802, Final residual = 3.69324e-09, No Iterations 2
smoothSolver:  Solving for Uz, Initial residual = 0.00104479, Final residual = 3.34448e-09, No Iterations 2
GAMG:  Solving for p, Initial residual = 0.00198409, Final residual = 9.23972e-05, No Iterations 4
GAMG:  Solving for p, Initial residual = 0.000557792, Final residual = 2.47755e-05, No Iterations 11
GAMG:  Solving for p, Initial residual = 0.000289339, Final residual = 1.40557e-05, No Iterations 10
time step continuity errors : sum local = 1.53758e-09, global = 1.83003e-10
GAMG:  Solving for p, Initial residual = 0.00139972, Final residual = 6.47495e-05, No Iterations 4
GAMG:  Solving for p, Initial residual = 0.000399824, Final residual = 1.73617e-05, No Iterations 12
GAMG:  Solving for p, Initial residual = 0.000221659, Final residual = 9.62266e-07, No Iterations 75
time step continuity errors : sum local = 1.05259e-10, global = -1.3267e-11, cumulative = -1.46427e-09
smoothSolver:  Solving for omega, Initial residual = 0.00169494, Final residual = 1.95203e-09, No Iterations 2
smoothSolver:  Solving for k, Initial residual = 0.000215129, Final residual = 8.51332e-10, No Iterations 2
bounding k, min: -0.0908173 max: 10.1917 average: 1.22968
ExecutionTime = 3705.08 s  ClockTime = 3737 s

Courant Number mean: 0.0843553 max: 4.9412
deltaT = 0.384615
Time = 198.461538s

PIMPLE: Iteration 1
smoothSolver:  Solving for Ux, Initial residual = 0.000177078, Final residual = 7.65016e-08, No Iterations 1
smoothSolver:  Solving for Uy, Initial residual = 0.001752, Final residual = 1.15589e-06, No Iterations 1
smoothSolver:  Solving for Uz, Initial residual = 0.00343483, Final residual = 1.63252e-06, No Iterations 1
GAMG:  Solving for p, Initial residual = 0.0019099, Final residual = 7.06727e-05, No Iterations 4
GAMG:  Solving for p, Initial residual = 0.000437916, Final residual = 1.93425e-05, No Iterations 7
GAMG:  Solving for p, Initial residual = 0.000149776, Final residual = 7.14244e-06, No Iterations 10
time step continuity errors : sum local = 7.8132e-10, global = 6.5937e-11
GAMG:  Solving for p, Initial residual = 0.00133941, Final residual = 4.96343e-05, No Iterations 4
GAMG:  Solving for p, Initial residual = 0.000302715, Final residual = 1.40442e-05, No Iterations 7
GAMG:  Solving for p, Initial residual = 0.000105727, Final residual = 9.08813e-07, No Iterations 36
time step continuity errors : sum local = 9.94133e-11, global = 1.03939e-11
PIMPLE: Iteration 2
smoothSolver:  Solving for Ux, Initial residual = 5.38065e-05, Final residual = 2.47054e-08, No Iterations 1
smoothSolver:  Solving for Uy, Initial residual = 0.000534924, Final residual = 3.70299e-09, No Iterations 2
smoothSolver:  Solving for Uz, Initial residual = 0.00104298, Final residual = 3.33869e-09, No Iterations 2
GAMG:  Solving for p, Initial residual = 0.00196811, Final residual = 8.96809e-05, No Iterations 4
GAMG:  Solving for p, Initial residual = 0.000556408, Final residual = 2.44195e-05, No Iterations 11
GAMG:  Solving for p, Initial residual = 0.000283471, Final residual = 1.38678e-05, No Iterations 10
time step continuity errors : sum local = 1.51648e-09, global = 1.81122e-10
GAMG:  Solving for p, Initial residual = 0.00138786, Final residual = 6.36006e-05, No Iterations 4
GAMG:  Solving for p, Initial residual = 0.000405541, Final residual = 1.93417e-05, No Iterations 10
GAMG:  Solving for p, Initial residual = 0.000202157, Final residual = 9.91153e-07, No Iterations 75
time step continuity errors : sum local = 1.08382e-10, global = -1.36713e-11, cumulative = -1.47794e-09
smoothSolver:  Solving for omega, Initial residual = 0.00169521, Final residual = 1.95263e-09, No Iterations 2
smoothSolver:  Solving for k, Initial residual = 0.000214679, Final residual = 8.53049e-10, No Iterations 2
bounding k, min: -0.0033045 max: 10.1917 average: 1.22962
ExecutionTime = 3708.92 s  ClockTime = 3741 s

Courant Number mean: 0.0843532 max: 4.94097
deltaT = 0.384615
Time = 198.846154s

PIMPLE: Iteration 1
smoothSolver:  Solving for Ux, Initial residual = 0.000176841, Final residual = 7.60974e-08, No Iterations 1
smoothSolver:  Solving for Uy, Initial residual = 0.00175227, Final residual = 1.15427e-06, No Iterations 1
smoothSolver:  Solving for Uz, Initial residual = 0.00342933, Final residual = 1.62573e-06, No Iterations 1
GAMG:  Solving for p, Initial residual = 0.00189866, Final residual = 6.91836e-05, No Iterations 4
GAMG:  Solving for p, Initial residual = 0.000435597, Final residual = 1.90782e-05, No Iterations 7
GAMG:  Solving for p, Initial residual = 0.000147406, Final residual = 7.01167e-06, No Iterations 10
time step continuity errors : sum local = 7.66772e-10, global = 6.4512e-11
GAMG:  Solving for p, Initial residual = 0.00133137, Final residual = 4.85163e-05, No Iterations 4
GAMG:  Solving for p, Initial residual = 0.000301003, Final residual = 1.38434e-05, No Iterations 7
GAMG:  Solving for p, Initial residual = 0.000104035, Final residual = 8.91125e-07, No Iterations 36
time step continuity errors : sum local = 9.74476e-11, global = 1.01595e-11
PIMPLE: Iteration 2
smoothSolver:  Solving for Ux, Initial residual = 5.37317e-05, Final residual = 2.45683e-08, No Iterations 1
smoothSolver:  Solving for Uy, Initial residual = 0.00053496, Final residual = 3.72102e-09, No Iterations 2
smoothSolver:  Solving for Uz, Initial residual = 0.00104121, Final residual = 3.32794e-09, No Iterations 2
GAMG:  Solving for p, Initial residual = 0.00195119, Final residual = 8.7633e-05, No Iterations 4
GAMG:  Solving for p, Initial residual = 0.000553348, Final residual = 2.41969e-05, No Iterations 11
GAMG:  Solving for p, Initial residual = 0.000279451, Final residual = 1.37736e-05, No Iterations 10
time step continuity errors : sum local = 1.50577e-09, global = 1.80942e-10
GAMG:  Solving for p, Initial residual = 0.00137586, Final residual = 6.45805e-05, No Iterations 4
GAMG:  Solving for p, Initial residual = 0.000413493, Final residual = 2.04486e-05, No Iterations 9
GAMG:  Solving for p, Initial residual = 0.000211327, Final residual = 9.90787e-07, No Iterations 71
time step continuity errors : sum local = 1.08314e-10, global = -1.37104e-11, cumulative = -1.49165e-09
smoothSolver:  Solving for omega, Initial residual = 0.00169551, Final residual = 1.95316e-09, No Iterations 2
smoothSolver:  Solving for k, Initial residual = 0.000214262, Final residual = 8.41429e-10, No Iterations 2
bounding k, min: -0.0859883 max: 10.1917 average: 1.22955
ExecutionTime = 3712.68 s  ClockTime = 3745 s

Courant Number mean: 0.0843511 max: 4.94076
deltaT = 0.384615
Time = 199.230769s

PIMPLE: Iteration 1
smoothSolver:  Solving for Ux, Initial residual = 0.0001766, Final residual = 7.57001e-08, No Iterations 1
smoothSolver:  Solving for Uy, Initial residual = 0.00175234, Final residual = 1.15267e-06, No Iterations 1
smoothSolver:  Solving for Uz, Initial residual = 0.00342348, Final residual = 1.6191e-06, No Iterations 1
GAMG:  Solving for p, Initial residual = 0.00188187, Final residual = 6.83344e-05, No Iterations 4
GAMG:  Solving for p, Initial residual = 0.000432833, Final residual = 1.8813e-05, No Iterations 7
GAMG:  Solving for p, Initial residual = 0.000145415, Final residual = 6.90305e-06, No Iterations 10
time step continuity errors : sum local = 7.54695e-10, global = 6.33082e-11
GAMG:  Solving for p, Initial residual = 0.00131925, Final residual = 4.78608e-05, No Iterations 4
GAMG:  Solving for p, Initial residual = 0.000299001, Final residual = 1.36512e-05, No Iterations 7
GAMG:  Solving for p, Initial residual = 0.000102592, Final residual = 9.80513e-07, No Iterations 34
time step continuity errors : sum local = 1.07194e-10, global = 1.11554e-11
PIMPLE: Iteration 2
smoothSolver:  Solving for Ux, Initial residual = 5.36567e-05, Final residual = 2.44359e-08, No Iterations 1
smoothSolver:  Solving for Uy, Initial residual = 0.000534945, Final residual = 3.73407e-09, No Iterations 2
smoothSolver:  Solving for Uz, Initial residual = 0.00103939, Final residual = 3.3104e-09, No Iterations 2
GAMG:  Solving for p, Initial residual = 0.00193442, Final residual = 8.68607e-05, No Iterations 4
GAMG:  Solving for p, Initial residual = 0.000547858, Final residual = 2.40473e-05, No Iterations 11
GAMG:  Solving for p, Initial residual = 0.000278086, Final residual = 1.37158e-05, No Iterations 10
time step continuity errors : sum local = 1.49908e-09, global = 1.80331e-10
GAMG:  Solving for p, Initial residual = 0.00136337, Final residual = 6.19881e-05, No Iterations 4
GAMG:  Solving for p, Initial residual = 0.000401912, Final residual = 1.98119e-05, No Iterations 9
GAMG:  Solving for p, Initial residual = 0.000199376, Final residual = 9.64051e-07, No Iterations 75
time step continuity errors : sum local = 1.05365e-10, global = -1.32898e-11, cumulative = -1.50494e-09
smoothSolver:  Solving for omega, Initial residual = 0.0016958, Final residual = 1.95536e-09, No Iterations 2
smoothSolver:  Solving for k, Initial residual = 0.000213862, Final residual = 8.44278e-10, No Iterations 2
ExecutionTime = 3716.47 s  ClockTime = 3749 s

Courant Number mean: 0.084349 max: 4.94057
deltaT = 0.384615
Time = 199.615385s

PIMPLE: Iteration 1
smoothSolver:  Solving for Ux, Initial residual = 0.000176362, Final residual = 7.53093e-08, No Iterations 1
smoothSolver:  Solving for Uy, Initial residual = 0.00175212, Final residual = 1.15104e-06, No Iterations 1
smoothSolver:  Solving for Uz, Initial residual = 0.00341767, Final residual = 1.61215e-06, No Iterations 1
GAMG:  Solving for p, Initial residual = 0.00187173, Final residual = 6.85951e-05, No Iterations 4
GAMG:  Solving for p, Initial residual = 0.000431305, Final residual = 1.86923e-05, No Iterations 7
GAMG:  Solving for p, Initial residual = 0.000144358, Final residual = 6.81386e-06, No Iterations 10
time step continuity errors : sum local = 7.44763e-10, global = 6.2087e-11
GAMG:  Solving for p, Initial residual = 0.00131222, Final residual = 4.80104e-05, No Iterations 4
GAMG:  Solving for p, Initial residual = 0.000297917, Final residual = 1.35607e-05, No Iterations 7
GAMG:  Solving for p, Initial residual = 0.000101877, Final residual = 9.65305e-07, No Iterations 34
time step continuity errors : sum local = 1.05506e-10, global = 1.0957e-11
PIMPLE: Iteration 2
smoothSolver:  Solving for Ux, Initial residual = 5.35819e-05, Final residual = 2.43042e-08, No Iterations 1
smoothSolver:  Solving for Uy, Initial residual = 0.00053488, Final residual = 3.74774e-09, No Iterations 2
smoothSolver:  Solving for Uz, Initial residual = 0.00103783, Final residual = 3.29238e-09, No Iterations 2
GAMG:  Solving for p, Initial residual = 0.00192514, Final residual = 8.68789e-05, No Iterations 4
GAMG:  Solving for p, Initial residual = 0.000540718, Final residual = 2.40391e-05, No Iterations 11
GAMG:  Solving for p, Initial residual = 0.000278014, Final residual = 1.37124e-05, No Iterations 10
time step continuity errors : sum local = 1.49836e-09, global = 1.79779e-10
GAMG:  Solving for p, Initial residual = 0.00135729, Final residual = 6.1767e-05, No Iterations 4
GAMG:  Solving for p, Initial residual = 0.000391363, Final residual = 1.76979e-05, No Iterations 11
GAMG:  Solving for p, Initial residual = 0.000208145, Final residual = 9.56019e-07, No Iterations 75
time step continuity errors : sum local = 1.04461e-10, global = -1.31619e-11, cumulative = -1.5181e-09
smoothSolver:  Solving for omega, Initial residual = 0.00169611, Final residual = 1.95776e-09, No Iterations 2
smoothSolver:  Solving for k, Initial residual = 0.00021348, Final residual = 8.33141e-10, No Iterations 2
bounding k, min: -0.0855403 max: 10.1917 average: 1.22942
ExecutionTime = 3720.29 s  ClockTime = 3753 s

Courant Number mean: 0.084347 max: 4.94038
deltaT = 0.384615
Time = 200s

PIMPLE: Iteration 1
smoothSolver:  Solving for Ux, Initial residual = 0.000176126, Final residual = 7.4922e-08, No Iterations 1
smoothSolver:  Solving for Uy, Initial residual = 0.00175182, Final residual = 1.14928e-06, No Iterations 1
smoothSolver:  Solving for Uz, Initial residual = 0.00341252, Final residual = 1.60502e-06, No Iterations 1
GAMG:  Solving for p, Initial residual = 0.00186702, Final residual = 6.9495e-05, No Iterations 4
GAMG:  Solving for p, Initial residual = 0.00042805, Final residual = 1.8854e-05, No Iterations 7
GAMG:  Solving for p, Initial residual = 0.000144558, Final residual = 6.82163e-06, No Iterations 10
time step continuity errors : sum local = 7.45432e-10, global = 6.20702e-11
GAMG:  Solving for p, Initial residual = 0.00130915, Final residual = 4.84547e-05, No Iterations 4
GAMG:  Solving for p, Initial residual = 0.00029565, Final residual = 1.36114e-05, No Iterations 7
GAMG:  Solving for p, Initial residual = 0.000101922, Final residual = 9.63723e-07, No Iterations 34
time step continuity errors : sum local = 1.05308e-10, global = 1.09154e-11
PIMPLE: Iteration 2
smoothSolver:  Solving for Ux, Initial residual = 5.35078e-05, Final residual = 2.41756e-08, No Iterations 1
smoothSolver:  Solving for Uy, Initial residual = 0.000534698, Final residual = 3.75655e-09, No Iterations 2
smoothSolver:  Solving for Uz, Initial residual = 0.00103605, Final residual = 3.27045e-09, No Iterations 2
GAMG:  Solving for p, Initial residual = 0.00192743, Final residual = 8.75225e-05, No Iterations 4
GAMG:  Solving for p, Initial residual = 0.000530665, Final residual = 2.42155e-05, No Iterations 11
GAMG:  Solving for p, Initial residual = 0.000279232, Final residual = 1.38119e-05, No Iterations 10
time step continuity errors : sum local = 1.50888e-09, global = 1.80247e-10
GAMG:  Solving for p, Initial residual = 0.0013592, Final residual = 6.1925e-05, No Iterations 4
GAMG:  Solving for p, Initial residual = 0.000381587, Final residual = 1.80109e-05, No Iterations 11
GAMG:  Solving for p, Initial residual = 0.00020946, Final residual = 9.69764e-07, No Iterations 75
time step continuity errors : sum local = 1.05939e-10, global = -1.33519e-11, cumulative = -1.53145e-09
smoothSolver:  Solving for omega, Initial residual = 0.00169647, Final residual = 1.9592e-09, No Iterations 2
smoothSolver:  Solving for k, Initial residual = 0.000213102, Final residual = 8.37088e-10, No Iterations 2
ExecutionTime = 3725.62 s  ClockTime = 3759 s

End

