/*---------------------------------------------------------------------------*\
  =========                 |
  \\      /  F ield         | OpenFOAM: The Open Source CFD Toolbox
   \\    /   O peration     | Website:  https://openfoam.org
    \\  /    A nd           | Version:  13
     \\/     M anipulation  |
\*---------------------------------------------------------------------------*/
Build  : 13-441953dfbb42
Exec   : foamRun -solver incompressibleFluid
Date   : Jun 19 2026
Time   : 13:35:49
Host   : "openfoam"
PID    : 1845
I/O    : uncollated
Case   : /home/ubuntu/OpenFOAM/ubuntu-v13/run/sRiverNoTerrain/urans/summer
nProcs : 1
sigFpe : Floating point exception trapping - not supported on this platform
fileModificationChecking : Monitoring run-time modified files using timeStampMaster (fileModificationSkew 10)
allowSystemOperations : Allowing user-supplied system call operations

// * * * * * * * * * * * * * * * * * * * * * * * * * * * * * * * * * * * * * //
Create time

Create mesh for time = 0

Selecting solver incompressibleFluid
Selecting viscosity model constant
Selecting turbulence model type RAS
    Selecting RAS turbulence model kOmegaSST
No MRF models present

Selecting patchDistMethod meshWave
Courant Number mean: 0.00601214 max: 0.169717

PIMPLE: No convergence criteria found


PIMPLE: No corrector convergence criteria found
        Calculations will do 2 corrections


PIMPLE: Operating solver in transient mode with 2 outer correctors


Reading surface description:
    pedestrianZone


Starting time loop

Courant Number mean: 0.00601214 max: 0.169717
deltaT = 0.059952
Time = 0.059952s

PIMPLE: Iteration 1
smoothSolver:  Solving for Ux, Initial residual = 1, Final residual = 0.000284988, No Iterations 1
smoothSolver:  Solving for Uy, Initial residual = 1, Final residual = 0.00378138, No Iterations 1
smoothSolver:  Solving for Uz, Initial residual = 1, Final residual = 0.00205226, No Iterations 1
GAMG:  Solving for p, Initial residual = 1, Final residual = 0.048162, No Iterations 59
GAMG:  Solving for p, Initial residual = 0.664694, Final residual = 0.0281409, No Iterations 3
GAMG:  Solving for p, Initial residual = 0.106215, Final residual = 0.00486502, No Iterations 5
time step continuity errors : sum local = 1.46103e-06, global = -9.64788e-08
GAMG:  Solving for p, Initial residual = 0.121977, Final residual = 0.00585036, No Iterations 53
GAMG:  Solving for p, Initial residual = 0.392285, Final residual = 0.0168631, No Iterations 3
GAMG:  Solving for p, Initial residual = 0.0745194, Final residual = 9.60793e-07, No Iterations 303
time step continuity errors : sum local = 2.92077e-10, global = -3.01692e-11
PIMPLE: Iteration 2
smoothSolver:  Solving for Ux, Initial residual = 0.00945144, Final residual = 9.04243e-09, No Iterations 2
smoothSolver:  Solving for Uy, Initial residual = 0.0216189, Final residual = 1.47007e-08, No Iterations 2
smoothSolver:  Solving for Uz, Initial residual = 0.0233796, Final residual = 2.36255e-09, No Iterations 3
GAMG:  Solving for p, Initial residual = 0.210753, Final residual = 0.0104375, No Iterations 40
GAMG:  Solving for p, Initial residual = 0.44349, Final residual = 0.0188081, No Iterations 3
GAMG:  Solving for p, Initial residual = 0.0790195, Final residual = 0.00354488, No Iterations 7
time step continuity errors : sum local = 9.54501e-07, global = -8.17981e-08
GAMG:  Solving for p, Initial residual = 0.0940588, Final residual = 0.00454876, No Iterations 40
GAMG:  Solving for p, Initial residual = 0.275963, Final residual = 0.0119427, No Iterations 3
GAMG:  Solving for p, Initial residual = 0.0560896, Final residual = 9.58854e-07, No Iterations 303
time step continuity errors : sum local = 2.6499e-10, global = -2.72872e-11, cumulative = -2.72872e-11
smoothSolver:  Solving for omega, Initial residual = 0.0349112, Final residual = 7.29147e-10, No Iterations 2
smoothSolver:  Solving for k, Initial residual = 1, Final residual = 6.22186e-08, No Iterations 2
ExecutionTime = 17.2483 s  ClockTime = 21 s

Courant Number mean: 0.0074457 max: 1.61717
deltaT = 0.0718562
Time = 0.131808s

PIMPLE: Iteration 1
smoothSolver:  Solving for Ux, Initial residual = 0.144354, Final residual = 1.77916e-05, No Iterations 1
smoothSolver:  Solving for Uy, Initial residual = 0.36287, Final residual = 0.000128483, No Iterations 1
smoothSolver:  Solving for Uz, Initial residual = 0.372857, Final residual = 0.000359808, No Iterations 1
GAMG:  Solving for p, Initial residual = 0.196585, Final residual = 0.00867024, No Iterations 16
GAMG:  Solving for p, Initial residual = 0.255219, Final residual = 0.00964708, No Iterations 4
GAMG:  Solving for p, Initial residual = 0.0789306, Final residual = 0.00373728, No Iterations 14
time step continuity errors : sum local = 7.02419e-07, global = -4.74364e-08
GAMG:  Solving for p, Initial residual = 0.148575, Final residual = 0.00691948, No Iterations 16
GAMG:  Solving for p, Initial residual = 0.188788, Final residual = 0.00743579, No Iterations 4
GAMG:  Solving for p, Initial residual = 0.0561796, Final residual = 9.56593e-07, No Iterations 252
time step continuity errors : sum local = 1.82279e-10, global = -1.85588e-11
PIMPLE: Iteration 2
smoothSolver:  Solving for Ux, Initial residual = 0.0269706, Final residual = 1.30481e-08, No Iterations 2
smoothSolver:  Solving for Uy, Initial residual = 0.0631901, Final residual = 2.31663e-09, No Iterations 3
smoothSolver:  Solving for Uz, Initial residual = 0.0686546, Final residual = 2.44332e-08, No Iterations 3
GAMG:  Solving for p, Initial residual = 0.183356, Final residual = 0.00878553, No Iterations 16
GAMG:  Solving for p, Initial residual = 0.249195, Final residual = 0.00921831, No Iterations 4
GAMG:  Solving for p, Initial residual = 0.0695582, Final residual = 0.0032549, No Iterations 14
time step continuity errors : sum local = 6.8309e-07, global = -4.57597e-08
GAMG:  Solving for p, Initial residual = 0.139082, Final residual = 0.00679006, No Iterations 16
GAMG:  Solving for p, Initial residual = 0.179934, Final residual = 0.00693477, No Iterations 4
GAMG:  Solving for p, Initial residual = 0.0491474, Final residual = 9.9846e-07, No Iterations 244
time step continuity errors : sum local = 2.13725e-10, global = -2.17298e-11, cumulative = -4.9017e-11
smoothSolver:  Solving for omega, Initial residual = 0.0289493, Final residual = 2.21526e-10, No Iterations 2
smoothSolver:  Solving for k, Initial residual = 0.993861, Final residual = 2.37608e-08, No Iterations 2
ExecutionTime = 28.6965 s  ClockTime = 32 s

Courant Number mean: 0.0089631 max: 2.14791
deltaT = 0.0861281
Time = 0.217936s

PIMPLE: Iteration 1
smoothSolver:  Solving for Ux, Initial residual = 0.107035, Final residual = 1.01308e-05, No Iterations 1
smoothSolver:  Solving for Uy, Initial residual = 0.149965, Final residual = 8.26487e-05, No Iterations 1
smoothSolver:  Solving for Uz, Initial residual = 0.176183, Final residual = 0.000197113, No Iterations 1
GAMG:  Solving for p, Initial residual = 0.155988, Final residual = 0.00712904, No Iterations 12
GAMG:  Solving for p, Initial residual = 0.141077, Final residual = 0.00560139, No Iterations 4
GAMG:  Solving for p, Initial residual = 0.0363621, Final residual = 0.001721, No Iterations 18
time step continuity errors : sum local = 5.00589e-07, global = -4.01434e-08
GAMG:  Solving for p, Initial residual = 0.114393, Final residual = 0.00523971, No Iterations 12
GAMG:  Solving for p, Initial residual = 0.0977628, Final residual = 0.00412435, No Iterations 4
GAMG:  Solving for p, Initial residual = 0.0254698, Final residual = 9.62686e-07, No Iterations 272
time step continuity errors : sum local = 2.8636e-10, global = -2.95135e-11
PIMPLE: Iteration 2
smoothSolver:  Solving for Ux, Initial residual = 0.0259432, Final residual = 1.14888e-08, No Iterations 2
smoothSolver:  Solving for Uy, Initial residual = 0.030443, Final residual = 2.98194e-09, No Iterations 3
smoothSolver:  Solving for Uz, Initial residual = 0.0380363, Final residual = 1.78531e-08, No Iterations 3
GAMG:  Solving for p, Initial residual = 0.133462, Final residual = 0.0064294, No Iterations 12
GAMG:  Solving for p, Initial residual = 0.130991, Final residual = 0.0050695, No Iterations 4
GAMG:  Solving for p, Initial residual = 0.0327688, Final residual = 0.00146989, No Iterations 18
time step continuity errors : sum local = 4.65936e-07, global = -3.59952e-08
GAMG:  Solving for p, Initial residual = 0.0973766, Final residual = 0.00465172, No Iterations 12
GAMG:  Solving for p, Initial residual = 0.0903509, Final residual = 0.00370292, No Iterations 4
GAMG:  Solving for p, Initial residual = 0.0229719, Final residual = 9.59571e-07, No Iterations 260
time step continuity errors : sum local = 3.09878e-10, global = -3.19104e-11, cumulative = -8.09274e-11
smoothSolver:  Solving for omega, Initial residual = 0.0426623, Final residual = 6.36389e-10, No Iterations 2
smoothSolver:  Solving for k, Initial residual = 0.989164, Final residual = 4.16469e-08, No Iterations 2
ExecutionTime = 40.4305 s  ClockTime = 44 s

Courant Number mean: 0.0108358 max: 2.68137
deltaT = 0.103282
Time = 0.321219s

PIMPLE: Iteration 1
smoothSolver:  Solving for Ux, Initial residual = 0.100162, Final residual = 8.12537e-06, No Iterations 1
smoothSolver:  Solving for Uy, Initial residual = 0.054716, Final residual = 4.84962e-05, No Iterations 1
smoothSolver:  Solving for Uz, Initial residual = 0.103971, Final residual = 8.93287e-05, No Iterations 1
GAMG:  Solving for p, Initial residual = 0.119056, Final residual = 0.00555014, No Iterations 10
GAMG:  Solving for p, Initial residual = 0.105149, Final residual = 0.00416476, No Iterations 4
GAMG:  Solving for p, Initial residual = 0.0258185, Final residual = 0.00113969, No Iterations 18
time step continuity errors : sum local = 5.19369e-07, global = -3.80328e-08
GAMG:  Solving for p, Initial residual = 0.0855212, Final residual = 0.00398005, No Iterations 10
GAMG:  Solving for p, Initial residual = 0.0718508, Final residual = 0.00303029, No Iterations 4
GAMG:  Solving for p, Initial residual = 0.0180772, Final residual = 9.97533e-07, No Iterations 244
time step continuity errors : sum local = 4.60121e-10, global = -4.74561e-11
PIMPLE: Iteration 2
smoothSolver:  Solving for Ux, Initial residual = 0.02643, Final residual = 7.8865e-09, No Iterations 2
smoothSolver:  Solving for Uy, Initial residual = 0.00865501, Final residual = 2.6881e-09, No Iterations 3
smoothSolver:  Solving for Uz, Initial residual = 0.0244017, Final residual = 4.1198e-09, No Iterations 3
GAMG:  Solving for p, Initial residual = 0.101356, Final residual = 0.00410574, No Iterations 10
GAMG:  Solving for p, Initial residual = 0.0840771, Final residual = 0.00419637, No Iterations 3
GAMG:  Solving for p, Initial residual = 0.0201907, Final residual = 0.000915312, No Iterations 17
time step continuity errors : sum local = 4.31605e-07, global = -3.05139e-08
GAMG:  Solving for p, Initial residual = 0.0721764, Final residual = 0.00295801, No Iterations 10
GAMG:  Solving for p, Initial residual = 0.0573271, Final residual = 0.00229123, No Iterations 4
GAMG:  Solving for p, Initial residual = 0.0142151, Final residual = 9.73928e-07, No Iterations 232
time step continuity errors : sum local = 4.63344e-10, global = -4.77364e-11, cumulative = -1.28664e-10
smoothSolver:  Solving for omega, Initial residual = 0.052218, Final residual = 1.49118e-09, No Iterations 2
smoothSolver:  Solving for k, Initial residual = 0.985673, Final residual = 7.63636e-08, No Iterations 2
ExecutionTime = 50.9858 s  ClockTime = 54 s

Courant Number mean: 0.0131474 max: 3.23392
deltaT = 0.123887
Time = 0.445106s

PIMPLE: Iteration 1
smoothSolver:  Solving for Ux, Initial residual = 0.0982127, Final residual = 8.23688e-06, No Iterations 1
smoothSolver:  Solving for Uy, Initial residual = 0.0487489, Final residual = 3.70338e-05, No Iterations 1
smoothSolver:  Solving for Uz, Initial residual = 0.0982403, Final residual = 0.00012222, No Iterations 1
GAMG:  Solving for p, Initial residual = 0.106259, Final residual = 0.0040236, No Iterations 5
GAMG:  Solving for p, Initial residual = 0.0448764, Final residual = 0.00201993, No Iterations 4
GAMG:  Solving for p, Initial residual = 0.0111649, Final residual = 0.000550359, No Iterations 16
time step continuity errors : sum local = 3.37261e-07, global = -2.58122e-08
GAMG:  Solving for p, Initial residual = 0.0748702, Final residual = 0.00283252, No Iterations 5
GAMG:  Solving for p, Initial residual = 0.0305252, Final residual = 0.00146571, No Iterations 4
GAMG:  Solving for p, Initial residual = 0.00782713, Final residual = 9.50543e-07, No Iterations 224
time step continuity errors : sum local = 5.86266e-10, global = -6.07307e-11
PIMPLE: Iteration 2
smoothSolver:  Solving for Ux, Initial residual = 0.0271047, Final residual = 7.71537e-09, No Iterations 2
smoothSolver:  Solving for Uy, Initial residual = 0.0172423, Final residual = 6.20175e-09, No Iterations 3
smoothSolver:  Solving for Uz, Initial residual = 0.0275959, Final residual = 1.63229e-08, No Iterations 3
GAMG:  Solving for p, Initial residual = 0.092427, Final residual = 0.00428852, No Iterations 4
GAMG:  Solving for p, Initial residual = 0.0355364, Final residual = 0.0014048, No Iterations 5
GAMG:  Solving for p, Initial residual = 0.00914869, Final residual = 0.000405731, No Iterations 12
time step continuity errors : sum local = 2.51755e-07, global = -1.64979e-08
GAMG:  Solving for p, Initial residual = 0.0643456, Final residual = 0.00301254, No Iterations 4
GAMG:  Solving for p, Initial residual = 0.0243986, Final residual = 0.00103703, No Iterations 5
GAMG:  Solving for p, Initial residual = 0.00656178, Final residual = 9.7077e-07, No Iterations 208
time step continuity errors : sum local = 6.04435e-10, global = -6.2656e-11, cumulative = -1.9132e-10
smoothSolver:  Solving for omega, Initial residual = 0.0608756, Final residual = 3.38925e-09, No Iterations 2
smoothSolver:  Solving for k, Initial residual = 0.983057, Final residual = 1.60471e-09, No Iterations 3
ExecutionTime = 60.3361 s  ClockTime = 64 s

Courant Number mean: 0.0159911 max: 3.66457
deltaT = 0.148368
Time = 0.593474s

PIMPLE: Iteration 1
smoothSolver:  Solving for Ux, Initial residual = 0.0978345, Final residual = 1.1063e-05, No Iterations 1
smoothSolver:  Solving for Uy, Initial residual = 0.0892198, Final residual = 8.43482e-05, No Iterations 1
smoothSolver:  Solving for Uz, Initial residual = 0.102317, Final residual = 0.000177194, No Iterations 1
GAMG:  Solving for p, Initial residual = 0.0886101, Final residual = 0.00416303, No Iterations 4
GAMG:  Solving for p, Initial residual = 0.0327133, Final residual = 0.00152488, No Iterations 5
GAMG:  Solving for p, Initial residual = 0.00989784, Final residual = 0.000468116, No Iterations 12
time step continuity errors : sum local = 3.90069e-07, global = -2.65472e-08
GAMG:  Solving for p, Initial residual = 0.0625821, Final residual = 0.00298057, No Iterations 4
GAMG:  Solving for p, Initial residual = 0.0228037, Final residual = 0.00112766, No Iterations 5
GAMG:  Solving for p, Initial residual = 0.00704447, Final residual = 9.78298e-07, No Iterations 204
time step continuity errors : sum local = 8.15167e-10, global = -8.56199e-11
PIMPLE: Iteration 2
smoothSolver:  Solving for Ux, Initial residual = 0.0276477, Final residual = 1.27357e-08, No Iterations 2
smoothSolver:  Solving for Uy, Initial residual = 0.0247188, Final residual = 1.43377e-08, No Iterations 3
smoothSolver:  Solving for Uz, Initial residual = 0.0274052, Final residual = 3.09526e-08, No Iterations 3
GAMG:  Solving for p, Initial residual = 0.0731378, Final residual = 0.00325115, No Iterations 5
GAMG:  Solving for p, Initial residual = 0.0314173, Final residual = 0.00149675, No Iterations 5
GAMG:  Solving for p, Initial residual = 0.00975682, Final residual = 0.000451047, No Iterations 13
time step continuity errors : sum local = 3.78485e-07, global = -3.24984e-08
GAMG:  Solving for p, Initial residual = 0.0516688, Final residual = 0.00231851, No Iterations 5
GAMG:  Solving for p, Initial residual = 0.0218672, Final residual = 0.000961217, No Iterations 6
GAMG:  Solving for p, Initial residual = 0.0071951, Final residual = 9.80688e-07, No Iterations 198
time step continuity errors : sum local = 8.22542e-10, global = -8.72739e-11, cumulative = -2.78594e-10
smoothSolver:  Solving for omega, Initial residual = 0.0693548, Final residual = 7.36122e-09, No Iterations 2
smoothSolver:  Solving for k, Initial residual = 0.980456, Final residual = 2.82779e-09, No Iterations 3
ExecutionTime = 69.1789 s  ClockTime = 72 s

Courant Number mean: 0.0194612 max: 4.02922
deltaT = 0.177721
Time = 0.771195s

PIMPLE: Iteration 1
smoothSolver:  Solving for Ux, Initial residual = 0.0979798, Final residual = 1.48387e-05, No Iterations 1
smoothSolver:  Solving for Uy, Initial residual = 0.0750015, Final residual = 9.68973e-05, No Iterations 1
smoothSolver:  Solving for Uz, Initial residual = 0.0865765, Final residual = 0.000152625, No Iterations 1
GAMG:  Solving for p, Initial residual = 0.0576916, Final residual = 0.00232928, No Iterations 6
GAMG:  Solving for p, Initial residual = 0.0265165, Final residual = 0.00110997, No Iterations 6
GAMG:  Solving for p, Initial residual = 0.0085409, Final residual = 0.000391182, No Iterations 14
time step continuity errors : sum local = 4.47648e-07, global = 2.82558e-08
GAMG:  Solving for p, Initial residual = 0.0411631, Final residual = 0.00167374, No Iterations 6
GAMG:  Solving for p, Initial residual = 0.0183508, Final residual = 0.000819997, No Iterations 6
GAMG:  Solving for p, Initial residual = 0.00602129, Final residual = 9.57246e-07, No Iterations 160
time step continuity errors : sum local = 1.09408e-09, global = 1.11201e-10
PIMPLE: Iteration 2
smoothSolver:  Solving for Ux, Initial residual = 0.0281073, Final residual = 1.91757e-08, No Iterations 2
smoothSolver:  Solving for Uy, Initial residual = 0.0176563, Final residual = 1.63923e-08, No Iterations 3
smoothSolver:  Solving for Uz, Initial residual = 0.0235552, Final residual = 2.90649e-08, No Iterations 3
GAMG:  Solving for p, Initial residual = 0.0459472, Final residual = 0.0020778, No Iterations 6
GAMG:  Solving for p, Initial residual = 0.0228198, Final residual = 0.00100655, No Iterations 6
GAMG:  Solving for p, Initial residual = 0.00758121, Final residual = 0.000354125, No Iterations 14
time step continuity errors : sum local = 4.06898e-07, global = 2.6806e-08
GAMG:  Solving for p, Initial residual = 0.0328698, Final residual = 0.00148808, No Iterations 6
GAMG:  Solving for p, Initial residual = 0.015799, Final residual = 0.000743789, No Iterations 6
GAMG:  Solving for p, Initial residual = 0.00536405, Final residual = 9.54773e-07, No Iterations 142
time step continuity errors : sum local = 1.09632e-09, global = 1.1237e-10, cumulative = -1.66223e-10
smoothSolver:  Solving for omega, Initial residual = 0.077249, Final residual = 1.55601e-08, No Iterations 2
smoothSolver:  Solving for k, Initial residual = 0.977897, Final residual = 5.64691e-09, No Iterations 3
ExecutionTime = 76.4822 s  ClockTime = 80 s

Courant Number mean: 0.0237473 max: 4.51333
deltaT = 0.196131
Time = 0.967326s

PIMPLE: Iteration 1
smoothSolver:  Solving for Ux, Initial residual = 0.0918131, Final residual = 1.64258e-05, No Iterations 1
smoothSolver:  Solving for Uy, Initial residual = 0.0326213, Final residual = 6.01011e-05, No Iterations 1
smoothSolver:  Solving for Uz, Initial residual = 0.069545, Final residual = 0.000107047, No Iterations 1
GAMG:  Solving for p, Initial residual = 0.0464248, Final residual = 0.00200114, No Iterations 4
GAMG:  Solving for p, Initial residual = 0.0162418, Final residual = 0.000682885, No Iterations 8
GAMG:  Solving for p, Initial residual = 0.0063842, Final residual = 0.000291094, No Iterations 12
time step continuity errors : sum local = 4.00596e-07, global = 2.42037e-08
GAMG:  Solving for p, Initial residual = 0.0328209, Final residual = 0.00142292, No Iterations 4
GAMG:  Solving for p, Initial residual = 0.0111301, Final residual = 0.000513352, No Iterations 8
GAMG:  Solving for p, Initial residual = 0.00454908, Final residual = 9.65191e-07, No Iterations 136
time step continuity errors : sum local = 1.32777e-09, global = 1.36704e-10
PIMPLE: Iteration 2
smoothSolver:  Solving for Ux, Initial residual = 0.0268446, Final residual = 2.20402e-08, No Iterations 2
smoothSolver:  Solving for Uy, Initial residual = 0.00814633, Final residual = 2.20145e-08, No Iterations 3
smoothSolver:  Solving for Uz, Initial residual = 0.0197283, Final residual = 1.98254e-08, No Iterations 3
GAMG:  Solving for p, Initial residual = 0.0393229, Final residual = 0.0016195, No Iterations 4
GAMG:  Solving for p, Initial residual = 0.0142342, Final residual = 0.000669222, No Iterations 5
GAMG:  Solving for p, Initial residual = 0.00437452, Final residual = 0.00019107, No Iterations 14
time step continuity errors : sum local = 2.6497e-07, global = 1.8929e-08
GAMG:  Solving for p, Initial residual = 0.0277348, Final residual = 0.00114261, No Iterations 4
GAMG:  Solving for p, Initial residual = 0.00983131, Final residual = 0.000487763, No Iterations 5
GAMG:  Solving for p, Initial residual = 0.00309576, Final residual = 9.34822e-07, No Iterations 132
time step continuity errors : sum local = 1.29637e-09, global = 1.35942e-10, cumulative = -3.02815e-11
smoothSolver:  Solving for omega, Initial residual = 0.0795996, Final residual = 2.37574e-08, No Iterations 2
smoothSolver:  Solving for k, Initial residual = 0.973865, Final residual = 9.66109e-09, No Iterations 3
ExecutionTime = 83.0628 s  ClockTime = 86 s

Courant Number mean: 0.0267382 max: 4.88108
deltaT = 0.200133
Time = 1.16746s

PIMPLE: Iteration 1
smoothSolver:  Solving for Ux, Initial residual = 0.0823521, Final residual = 1.55743e-05, No Iterations 1
smoothSolver:  Solving for Uy, Initial residual = 0.0314927, Final residual = 6.06184e-05, No Iterations 1
smoothSolver:  Solving for Uz, Initial residual = 0.0579275, Final residual = 8.97982e-05, No Iterations 1
GAMG:  Solving for p, Initial residual = 0.0425442, Final residual = 0.00195785, No Iterations 3
GAMG:  Solving for p, Initial residual = 0.0120347, Final residual = 0.000594885, No Iterations 4
GAMG:  Solving for p, Initial residual = 0.0033469, Final residual = 0.000161879, No Iterations 11
time step continuity errors : sum local = 2.37014e-07, global = -2.58607e-08
GAMG:  Solving for p, Initial residual = 0.0296634, Final residual = 0.00136202, No Iterations 3
GAMG:  Solving for p, Initial residual = 0.00826578, Final residual = 0.000364542, No Iterations 5
GAMG:  Solving for p, Initial residual = 0.0024446, Final residual = 9.83187e-07, No Iterations 188
time step continuity errors : sum local = 1.44023e-09, global = -1.53682e-10
PIMPLE: Iteration 2
smoothSolver:  Solving for Ux, Initial residual = 0.0245239, Final residual = 2.18348e-08, No Iterations 2
smoothSolver:  Solving for Uy, Initial residual = 0.00922525, Final residual = 2.71247e-08, No Iterations 3
smoothSolver:  Solving for Uz, Initial residual = 0.0165443, Final residual = 2.70433e-08, No Iterations 3
GAMG:  Solving for p, Initial residual = 0.0352426, Final residual = 0.00128035, No Iterations 4
GAMG:  Solving for p, Initial residual = 0.0113377, Final residual = 0.000451047, No Iterations 4
GAMG:  Solving for p, Initial residual = 0.002733, Final residual = 0.000122807, No Iterations 14
time step continuity errors : sum local = 1.8159e-07, global = -1.51135e-08
GAMG:  Solving for p, Initial residual = 0.0244936, Final residual = 0.000896036, No Iterations 4
GAMG:  Solving for p, Initial residual = 0.00774413, Final residual = 0.000331366, No Iterations 4
GAMG:  Solving for p, Initial residual = 0.00189335, Final residual = 9.98489e-07, No Iterations 184
time step continuity errors : sum local = 1.47751e-09, global = -1.56206e-10, cumulative = -1.86488e-10
smoothSolver:  Solving for omega, Initial residual = 0.0770601, Final residual = 2.62544e-08, No Iterations 2
smoothSolver:  Solving for k, Initial residual = 0.968346, Final residual = 1.15949e-08, No Iterations 3
ExecutionTime = 91.2319 s  ClockTime = 95 s

Courant Number mean: 0.0278485 max: 5.01006
deltaT = 0.199316
--> FOAM Warning : 
    From function virtual Foam::Time& Foam::Time::operator++()
    in file db/Time/Time.C at line 1304
    Increased the timePrecision from 6 to 7 to distinguish between timeNames at time 1.366776
Time = 1.366776s

PIMPLE: Iteration 1
smoothSolver:  Solving for Ux, Initial residual = 0.0746393, Final residual = 1.41717e-05, No Iterations 1
smoothSolver:  Solving for Uy, Initial residual = 0.0281152, Final residual = 5.67028e-05, No Iterations 1
smoothSolver:  Solving for Uz, Initial residual = 0.0473343, Final residual = 6.79487e-05, No Iterations 1
GAMG:  Solving for p, Initial residual = 0.0339266, Final residual = 0.00128716, No Iterations 4
GAMG:  Solving for p, Initial residual = 0.0102115, Final residual = 0.000488199, No Iterations 4
GAMG:  Solving for p, Initial residual = 0.00264911, Final residual = 0.000131645, No Iterations 18
time step continuity errors : sum local = 1.95478e-07, global = -1.84184e-08
GAMG:  Solving for p, Initial residual = 0.0236553, Final residual = 0.000897678, No Iterations 4
GAMG:  Solving for p, Initial residual = 0.00695905, Final residual = 0.000277755, No Iterations 6
GAMG:  Solving for p, Initial residual = 0.0020094, Final residual = 9.84322e-07, No Iterations 190
time step continuity errors : sum local = 1.4643e-09, global = -1.5465e-10
PIMPLE: Iteration 2
smoothSolver:  Solving for Ux, Initial residual = 0.0224993, Final residual = 1.97618e-08, No Iterations 2
smoothSolver:  Solving for Uy, Initial residual = 0.00742987, Final residual = 1.88387e-08, No Iterations 3
smoothSolver:  Solving for Uz, Initial residual = 0.0135133, Final residual = 2.48537e-08, No Iterations 3
GAMG:  Solving for p, Initial residual = 0.0275202, Final residual = 0.00123974, No Iterations 4
GAMG:  Solving for p, Initial residual = 0.00926121, Final residual = 0.000417806, No Iterations 6
GAMG:  Solving for p, Initial residual = 0.00272174, Final residual = 0.00013301, No Iterations 18
time step continuity errors : sum local = 1.99172e-07, global = -1.74147e-08
GAMG:  Solving for p, Initial residual = 0.0192361, Final residual = 0.000865977, No Iterations 4
GAMG:  Solving for p, Initial residual = 0.00629764, Final residual = 0.00031218, No Iterations 6
GAMG:  Solving for p, Initial residual = 0.00193388, Final residual = 9.99832e-07, No Iterations 186
time step continuity errors : sum local = 1.4997e-09, global = -1.57846e-10, cumulative = -3.44334e-10
smoothSolver:  Solving for omega, Initial residual = 0.0714997, Final residual = 2.52033e-08, No Iterations 2
smoothSolver:  Solving for k, Initial residual = 0.961974, Final residual = 1.10992e-08, No Iterations 3
ExecutionTime = 99.7824 s  ClockTime = 103 s

Courant Number mean: 0.0283001 max: 5.05129
deltaT = 0.196896
Time = 1.563671s

PIMPLE: Iteration 1
smoothSolver:  Solving for Ux, Initial residual = 0.0687244, Final residual = 1.28344e-05, No Iterations 1
smoothSolver:  Solving for Uy, Initial residual = 0.0201546, Final residual = 3.94312e-05, No Iterations 1
smoothSolver:  Solving for Uz, Initial residual = 0.0384625, Final residual = 4.84354e-05, No Iterations 1
GAMG:  Solving for p, Initial residual = 0.0261604, Final residual = 0.000999772, No Iterations 4
GAMG:  Solving for p, Initial residual = 0.00728445, Final residual = 0.000341832, No Iterations 8
GAMG:  Solving for p, Initial residual = 0.00285294, Final residual = 0.000131741, No Iterations 18
time step continuity errors : sum local = 1.94186e-07, global = -1.82891e-08
GAMG:  Solving for p, Initial residual = 0.0183065, Final residual = 0.000698872, No Iterations 4
GAMG:  Solving for p, Initial residual = 0.00493346, Final residual = 0.000240156, No Iterations 10
GAMG:  Solving for p, Initial residual = 0.0024024, Final residual = 9.9406e-07, No Iterations 190
time step continuity errors : sum local = 1.46916e-09, global = -1.54973e-10
PIMPLE: Iteration 2
smoothSolver:  Solving for Ux, Initial residual = 0.0208909, Final residual = 1.72797e-08, No Iterations 2
smoothSolver:  Solving for Uy, Initial residual = 0.00578343, Final residual = 7.66358e-09, No Iterations 3
smoothSolver:  Solving for Uz, Initial residual = 0.0110178, Final residual = 9.48239e-09, No Iterations 3
GAMG:  Solving for p, Initial residual = 0.0219201, Final residual = 0.000892344, No Iterations 4
GAMG:  Solving for p, Initial residual = 0.0062705, Final residual = 0.000307866, No Iterations 10
GAMG:  Solving for p, Initial residual = 0.0029126, Final residual = 0.00013783, No Iterations 14
time step continuity errors : sum local = 2.0476e-07, global = -1.69136e-08
GAMG:  Solving for p, Initial residual = 0.0153065, Final residual = 0.000629881, No Iterations 4
GAMG:  Solving for p, Initial residual = 0.00427174, Final residual = 0.000205049, No Iterations 12
GAMG:  Solving for p, Initial residual = 0.00240003, Final residual = 9.95498e-07, No Iterations 182
time step continuity errors : sum local = 1.48226e-09, global = -1.55989e-10, cumulative = -5.00323e-10
smoothSolver:  Solving for omega, Initial residual = 0.0654841, Final residual = 2.2866e-08, No Iterations 2
smoothSolver:  Solving for k, Initial residual = 0.954705, Final residual = 1.19159e-08, No Iterations 3
ExecutionTime = 108.729 s  ClockTime = 112 s

Courant Number mean: 0.0285056 max: 5.029
deltaT = 0.195308
Time = 1.758979s

PIMPLE: Iteration 1
smoothSolver:  Solving for Ux, Initial residual = 0.0645414, Final residual = 1.19449e-05, No Iterations 1
smoothSolver:  Solving for Uy, Initial residual = 0.017526, Final residual = 2.63702e-05, No Iterations 1
smoothSolver:  Solving for Uz, Initial residual = 0.0318043, Final residual = 3.87608e-05, No Iterations 1
GAMG:  Solving for p, Initial residual = 0.0223418, Final residual = 0.000939546, No Iterations 3
GAMG:  Solving for p, Initial residual = 0.00493046, Final residual = 0.000218695, No Iterations 11
GAMG:  Solving for p, Initial residual = 0.00290108, Final residual = 0.000142873, No Iterations 8
time step continuity errors : sum local = 2.09767e-07, global = -1.88674e-08
GAMG:  Solving for p, Initial residual = 0.015535, Final residual = 0.000671025, No Iterations 3
GAMG:  Solving for p, Initial residual = 0.00339757, Final residual = 0.000157045, No Iterations 13
GAMG:  Solving for p, Initial residual = 0.00246734, Final residual = 9.51407e-07, No Iterations 186
time step continuity errors : sum local = 1.39932e-09, global = -1.47691e-10
PIMPLE: Iteration 2
smoothSolver:  Solving for Ux, Initial residual = 0.01972, Final residual = 1.54919e-08, No Iterations 2
smoothSolver:  Solving for Uy, Initial residual = 0.00499374, Final residual = 7.13714e-09, No Iterations 3
smoothSolver:  Solving for Uz, Initial residual = 0.00912955, Final residual = 5.42848e-09, No Iterations 3
GAMG:  Solving for p, Initial residual = 0.0187384, Final residual = 0.000835448, No Iterations 3
GAMG:  Solving for p, Initial residual = 0.00419284, Final residual = 0.0001886, No Iterations 11
GAMG:  Solving for p, Initial residual = 0.00240295, Final residual = 0.000118873, No Iterations 8
time step continuity errors : sum local = 1.75503e-07, global = -1.48509e-08
GAMG:  Solving for p, Initial residual = 0.0130322, Final residual = 0.000596736, No Iterations 3
GAMG:  Solving for p, Initial residual = 0.00289665, Final residual = 0.000130874, No Iterations 13
GAMG:  Solving for p, Initial residual = 0.00201281, Final residual = 9.67496e-07, No Iterations 174
time step continuity errors : sum local = 1.43057e-09, global = -1.5059e-10, cumulative = -6.50912e-10
smoothSolver:  Solving for omega, Initial residual = 0.0601209, Final residual = 2.09059e-08, No Iterations 2
smoothSolver:  Solving for k, Initial residual = 0.947079, Final residual = 1.16267e-08, No Iterations 3
ExecutionTime = 117.765 s  ClockTime = 121 s

Courant Number mean: 0.0288092 max: 5.00321
deltaT = 0.19452
Time = 1.953499s

PIMPLE: Iteration 1
smoothSolver:  Solving for Ux, Initial residual = 0.0613875, Final residual = 1.13638e-05, No Iterations 1
smoothSolver:  Solving for Uy, Initial residual = 0.0147945, Final residual = 2.06193e-05, No Iterations 1
smoothSolver:  Solving for Uz, Initial residual = 0.026614, Final residual = 3.21891e-05, No Iterations 1
GAMG:  Solving for p, Initial residual = 0.0183838, Final residual = 0.000720579, No Iterations 3
GAMG:  Solving for p, Initial residual = 0.00390005, Final residual = 0.000184521, No Iterations 8
GAMG:  Solving for p, Initial residual = 0.00171691, Final residual = 8.19508e-05, No Iterations 18
time step continuity errors : sum local = 1.20084e-07, global = -1.20212e-08
GAMG:  Solving for p, Initial residual = 0.0128633, Final residual = 0.00051284, No Iterations 3
GAMG:  Solving for p, Initial residual = 0.00275035, Final residual = 0.000128472, No Iterations 10
GAMG:  Solving for p, Initial residual = 0.00143775, Final residual = 9.92614e-07, No Iterations 176
time step continuity errors : sum local = 1.45733e-09, global = -1.54015e-10
PIMPLE: Iteration 2
smoothSolver:  Solving for Ux, Initial residual = 0.0188101, Final residual = 1.46489e-08, No Iterations 2
smoothSolver:  Solving for Uy, Initial residual = 0.00412985, Final residual = 5.79182e-09, No Iterations 3
smoothSolver:  Solving for Uz, Initial residual = 0.00767207, Final residual = 8.62141e-08, No Iterations 2
GAMG:  Solving for p, Initial residual = 0.0150668, Final residual = 0.000635475, No Iterations 3
GAMG:  Solving for p, Initial residual = 0.00330501, Final residual = 0.000153932, No Iterations 8
GAMG:  Solving for p, Initial residual = 0.00133602, Final residual = 6.57668e-05, No Iterations 14
time step continuity errors : sum local = 9.67318e-08, global = -8.95169e-09
GAMG:  Solving for p, Initial residual = 0.0105324, Final residual = 0.000454505, No Iterations 3
GAMG:  Solving for p, Initial residual = 0.00231991, Final residual = 0.00011581, No Iterations 8
GAMG:  Solving for p, Initial residual = 0.000985002, Final residual = 9.93291e-07, No Iterations 160
time step continuity errors : sum local = 1.46263e-09, global = -1.53831e-10, cumulative = -8.04744e-10
smoothSolver:  Solving for omega, Initial residual = 0.0554132, Final residual = 1.9467e-08, No Iterations 2
smoothSolver:  Solving for k, Initial residual = 0.939327, Final residual = 1.20723e-08, No Iterations 3
ExecutionTime = 126.609 s  ClockTime = 130 s

Courant Number mean: 0.0292119 max: 4.98565
deltaT = 0.19452
Time = 2.14802s

PIMPLE: Iteration 1
smoothSolver:  Solving for Ux, Initial residual = 0.0588723, Final residual = 1.09963e-05, No Iterations 1
smoothSolver:  Solving for Uy, Initial residual = 0.0116443, Final residual = 1.79121e-05, No Iterations 1
smoothSolver:  Solving for Uz, Initial residual = 0.022735, Final residual = 2.65007e-05, No Iterations 1
GAMG:  Solving for p, Initial residual = 0.0141901, Final residual = 0.000549825, No Iterations 3
GAMG:  Solving for p, Initial residual = 0.00312096, Final residual = 0.000132117, No Iterations 6
GAMG:  Solving for p, Initial residual = 0.00109036, Final residual = 5.24503e-05, No Iterations 16
time step continuity errors : sum local = 7.70957e-08, global = -8.57322e-09
GAMG:  Solving for p, Initial residual = 0.00993489, Final residual = 0.000389456, No Iterations 3
GAMG:  Solving for p, Initial residual = 0.00219362, Final residual = 0.000100412, No Iterations 6
GAMG:  Solving for p, Initial residual = 0.000792634, Final residual = 9.54616e-07, No Iterations 162
time step continuity errors : sum local = 1.40417e-09, global = -1.49458e-10
PIMPLE: Iteration 2
smoothSolver:  Solving for Ux, Initial residual = 0.0180624, Final residual = 1.42499e-08, No Iterations 2
smoothSolver:  Solving for Uy, Initial residual = 0.00326965, Final residual = 4.29806e-09, No Iterations 3
smoothSolver:  Solving for Uz, Initial residual = 0.00655264, Final residual = 6.55712e-08, No Iterations 2
GAMG:  Solving for p, Initial residual = 0.0120827, Final residual = 0.000458724, No Iterations 3
GAMG:  Solving for p, Initial residual = 0.00261074, Final residual = 0.000119118, No Iterations 5
GAMG:  Solving for p, Initial residual = 0.00080659, Final residual = 3.91106e-05, No Iterations 9
time step continuity errors : sum local = 5.75921e-08, global = -3.90166e-09
GAMG:  Solving for p, Initial residual = 0.00843661, Final residual = 0.000322607, No Iterations 3
GAMG:  Solving for p, Initial residual = 0.00181625, Final residual = 8.93568e-05, No Iterations 5
GAMG:  Solving for p, Initial residual = 0.000574609, Final residual = 9.49003e-07, No Iterations 121
time step continuity errors : sum local = 1.39783e-09, global = -1.46335e-10, cumulative = -9.51079e-10
smoothSolver:  Solving for omega, Initial residual = 0.0512916, Final residual = 1.83373e-08, No Iterations 2
smoothSolver:  Solving for k, Initial residual = 0.931072, Final residual = 1.24172e-08, No Iterations 3
ExecutionTime = 133.636 s  ClockTime = 137 s

Courant Number mean: 0.0297172 max: 4.99277
deltaT = 0.19452
Time = 2.34254s

PIMPLE: Iteration 1
smoothSolver:  Solving for Ux, Initial residual = 0.056544, Final residual = 1.06513e-05, No Iterations 1
smoothSolver:  Solving for Uy, Initial residual = 0.00953305, Final residual = 1.64505e-05, No Iterations 1
smoothSolver:  Solving for Uz, Initial residual = 0.0194888, Final residual = 2.17769e-05, No Iterations 1
GAMG:  Solving for p, Initial residual = 0.0124374, Final residual = 0.000448992, No Iterations 3
GAMG:  Solving for p, Initial residual = 0.00242573, Final residual = 0.000104826, No Iterations 7
GAMG:  Solving for p, Initial residual = 0.00088518, Final residual = 3.8868e-05, No Iterations 10
time step continuity errors : sum local = 5.7277e-08, global = 4.00123e-09
GAMG:  Solving for p, Initial residual = 0.00869005, Final residual = 0.000317308, No Iterations 3
GAMG:  Solving for p, Initial residual = 0.00168881, Final residual = 7.7931e-05, No Iterations 7
GAMG:  Solving for p, Initial residual = 0.000623999, Final residual = 9.78812e-07, No Iterations 94
time step continuity errors : sum local = 1.44236e-09, global = 1.47428e-10
PIMPLE: Iteration 2
smoothSolver:  Solving for Ux, Initial residual = 0.0173552, Final residual = 1.35704e-08, No Iterations 2
smoothSolver:  Solving for Uy, Initial residual = 0.0028392, Final residual = 9.56642e-08, No Iterations 2
smoothSolver:  Solving for Uz, Initial residual = 0.00563599, Final residual = 5.15004e-08, No Iterations 2
GAMG:  Solving for p, Initial residual = 0.0106413, Final residual = 0.000381177, No Iterations 3
GAMG:  Solving for p, Initial residual = 0.00198469, Final residual = 8.06097e-05, No Iterations 9
GAMG:  Solving for p, Initial residual = 0.000847107, Final residual = 4.13422e-05, No Iterations 10
time step continuity errors : sum local = 6.09146e-08, global = 4.48569e-09
GAMG:  Solving for p, Initial residual = 0.00743927, Final residual = 0.000269806, No Iterations 3
GAMG:  Solving for p, Initial residual = 0.00137543, Final residual = 6.36498e-05, No Iterations 9
GAMG:  Solving for p, Initial residual = 0.000634414, Final residual = 9.97841e-07, No Iterations 134
time step continuity errors : sum local = 1.46961e-09, global = 1.54714e-10, cumulative = -7.96365e-10
smoothSolver:  Solving for omega, Initial residual = 0.0475106, Final residual = 1.73606e-08, No Iterations 2
smoothSolver:  Solving for k, Initial residual = 0.921377, Final residual = 1.24651e-08, No Iterations 3
ExecutionTime = 139.67 s  ClockTime = 143 s

Courant Number mean: 0.0302083 max: 5.01674
deltaT = 0.19373
Time = 2.536269s

PIMPLE: Iteration 1
smoothSolver:  Solving for Ux, Initial residual = 0.0541077, Final residual = 1.01702e-05, No Iterations 1
smoothSolver:  Solving for Uy, Initial residual = 0.00876834, Final residual = 1.57314e-05, No Iterations 1
smoothSolver:  Solving for Uz, Initial residual = 0.0167797, Final residual = 1.78456e-05, No Iterations 1
GAMG:  Solving for p, Initial residual = 0.0112003, Final residual = 0.000437619, No Iterations 3
GAMG:  Solving for p, Initial residual = 0.00192227, Final residual = 8.14497e-05, No Iterations 13
GAMG:  Solving for p, Initial residual = 0.00104314, Final residual = 4.90566e-05, No Iterations 12
time step continuity errors : sum local = 7.17151e-08, global = 6.40267e-09
GAMG:  Solving for p, Initial residual = 0.00785193, Final residual = 0.000313314, No Iterations 3
GAMG:  Solving for p, Initial residual = 0.00134246, Final residual = 6.37543e-05, No Iterations 13
GAMG:  Solving for p, Initial residual = 0.000809338, Final residual = 9.75233e-07, No Iterations 144
time step continuity errors : sum local = 1.42464e-09, global = 1.49062e-10
PIMPLE: Iteration 2
smoothSolver:  Solving for Ux, Initial residual = 0.0166044, Final residual = 1.28073e-08, No Iterations 2
smoothSolver:  Solving for Uy, Initial residual = 0.002731, Final residual = 9.34014e-08, No Iterations 2
smoothSolver:  Solving for Uz, Initial residual = 0.00495092, Final residual = 4.3583e-08, No Iterations 2
GAMG:  Solving for p, Initial residual = 0.00965525, Final residual = 0.000403798, No Iterations 3
GAMG:  Solving for p, Initial residual = 0.00172055, Final residual = 7.81209e-05, No Iterations 17
GAMG:  Solving for p, Initial residual = 0.00165631, Final residual = 7.06667e-05, No Iterations 6
time step continuity errors : sum local = 1.03063e-07, global = 9.78204e-09
GAMG:  Solving for p, Initial residual = 0.0068047, Final residual = 0.000298707, No Iterations 3
GAMG:  Solving for p, Initial residual = 0.00122457, Final residual = 5.96557e-05, No Iterations 19
GAMG:  Solving for p, Initial residual = 0.00139464, Final residual = 9.51621e-07, No Iterations 156
time step continuity errors : sum local = 1.38643e-09, global = 1.46107e-10, cumulative = -6.50258e-10
smoothSolver:  Solving for omega, Initial residual = 0.0438852, Final residual = 1.60726e-08, No Iterations 2
smoothSolver:  Solving for k, Initial residual = 0.910374, Final residual = 1.24908e-08, No Iterations 3
ExecutionTime = 147.711 s  ClockTime = 151 s

Courant Number mean: 0.0305599 max: 5.03731
deltaT = 0.192161
Time = 2.72843s

PIMPLE: Iteration 1
smoothSolver:  Solving for Ux, Initial residual = 0.0515661, Final residual = 9.60794e-06, No Iterations 1
smoothSolver:  Solving for Uy, Initial residual = 0.00846402, Final residual = 1.50037e-05, No Iterations 1
smoothSolver:  Solving for Uz, Initial residual = 0.0148469, Final residual = 1.5039e-05, No Iterations 1
GAMG:  Solving for p, Initial residual = 0.010219, Final residual = 0.000335382, No Iterations 4
GAMG:  Solving for p, Initial residual = 0.00192997, Final residual = 9.08517e-05, No Iterations 16
GAMG:  Solving for p, Initial residual = 0.00147276, Final residual = 7.19771e-05, No Iterations 8
time step continuity errors : sum local = 1.03194e-07, global = 9.65975e-09
GAMG:  Solving for p, Initial residual = 0.00721877, Final residual = 0.000250647, No Iterations 4
GAMG:  Solving for p, Initial residual = 0.00137908, Final residual = 6.81116e-05, No Iterations 18
GAMG:  Solving for p, Initial residual = 0.00125435, Final residual = 9.85669e-07, No Iterations 156
time step continuity errors : sum local = 1.41135e-09, global = 1.48186e-10
PIMPLE: Iteration 2
smoothSolver:  Solving for Ux, Initial residual = 0.0158175, Final residual = 1.19382e-08, No Iterations 2
smoothSolver:  Solving for Uy, Initial residual = 0.0026591, Final residual = 8.5632e-08, No Iterations 2
smoothSolver:  Solving for Uz, Initial residual = 0.00444854, Final residual = 4.02905e-08, No Iterations 2
GAMG:  Solving for p, Initial residual = 0.00887649, Final residual = 0.000324515, No Iterations 4
GAMG:  Solving for p, Initial residual = 0.00194053, Final residual = 9.22773e-05, No Iterations 18
GAMG:  Solving for p, Initial residual = 0.00182031, Final residual = 8.35298e-05, No Iterations 6
time step continuity errors : sum local = 1.19266e-07, global = 1.196e-08
GAMG:  Solving for p, Initial residual = 0.00629248, Final residual = 0.000250077, No Iterations 4
GAMG:  Solving for p, Initial residual = 0.00142225, Final residual = 7.06504e-05, No Iterations 20
GAMG:  Solving for p, Initial residual = 0.00154076, Final residual = 9.78967e-07, No Iterations 162
time step continuity errors : sum local = 1.39588e-09, global = 1.47021e-10, cumulative = -5.03237e-10
smoothSolver:  Solving for omega, Initial residual = 0.0404309, Final residual = 1.46936e-08, No Iterations 2
smoothSolver:  Solving for k, Initial residual = 0.81083, Final residual = 1.08288e-08, No Iterations 3
ExecutionTime = 156.476 s  ClockTime = 160 s

Courant Number mean: 0.0307665 max: 5.04734
deltaT = 0.189846
Time = 2.918276s

PIMPLE: Iteration 1
smoothSolver:  Solving for Ux, Initial residual = 0.0489574, Final residual = 8.97132e-06, No Iterations 1
smoothSolver:  Solving for Uy, Initial residual = 0.00807269, Final residual = 1.39974e-05, No Iterations 1
smoothSolver:  Solving for Uz, Initial residual = 0.0133724, Final residual = 1.27441e-05, No Iterations 1
GAMG:  Solving for p, Initial residual = 0.00940986, Final residual = 0.000366688, No Iterations 4
GAMG:  Solving for p, Initial residual = 0.00208167, Final residual = 9.97549e-05, No Iterations 18
GAMG:  Solving for p, Initial residual = 0.00169086, Final residual = 8.0316e-05, No Iterations 8
time step continuity errors : sum local = 1.11738e-07, global = 1.07532e-08
GAMG:  Solving for p, Initial residual = 0.00667549, Final residual = 0.000279456, No Iterations 4
GAMG:  Solving for p, Initial residual = 0.00151768, Final residual = 7.47998e-05, No Iterations 20
GAMG:  Solving for p, Initial residual = 0.00144183, Final residual = 9.70986e-07, No Iterations 162
time step continuity errors : sum local = 1.34885e-09, global = 1.41679e-10
PIMPLE: Iteration 2
smoothSolver:  Solving for Ux, Initial residual = 0.0150094, Final residual = 1.09004e-08, No Iterations 2
smoothSolver:  Solving for Uy, Initial residual = 0.00256008, Final residual = 7.58499e-08, No Iterations 2
smoothSolver:  Solving for Uz, Initial residual = 0.00404172, Final residual = 3.55084e-08, No Iterations 2
GAMG:  Solving for p, Initial residual = 0.00818694, Final residual = 0.000346187, No Iterations 4
GAMG:  Solving for p, Initial residual = 0.00208674, Final residual = 9.72708e-05, No Iterations 20
GAMG:  Solving for p, Initial residual = 0.00198889, Final residual = 8.93108e-05, No Iterations 6
time step continuity errors : sum local = 1.23642e-07, global = 1.2669e-08
GAMG:  Solving for p, Initial residual = 0.00582144, Final residual = 0.000268538, No Iterations 4
GAMG:  Solving for p, Initial residual = 0.00154074, Final residual = 7.41078e-05, No Iterations 22
GAMG:  Solving for p, Initial residual = 0.00169568, Final residual = 9.94361e-07, No Iterations 164
time step continuity errors : sum local = 1.37453e-09, global = 1.44695e-10, cumulative = -3.58543e-10
smoothSolver:  Solving for omega, Initial residual = 0.0371648, Final residual = 1.31925e-08, No Iterations 2
smoothSolver:  Solving for k, Initial residual = 0.649832, Final residual = 8.67696e-09, No Iterations 3
ExecutionTime = 165.595 s  ClockTime = 169 s

Courant Number mean: 0.0308262 max: 5.04063
deltaT = 0.187577
Time = 3.105852s

PIMPLE: Iteration 1
smoothSolver:  Solving for Ux, Initial residual = 0.0465014, Final residual = 8.37174e-06, No Iterations 1
smoothSolver:  Solving for Uy, Initial residual = 0.00779611, Final residual = 1.29729e-05, No Iterations 1
smoothSolver:  Solving for Uz, Initial residual = 0.0121973, Final residual = 1.08559e-05, No Iterations 1
GAMG:  Solving for p, Initial residual = 0.00886802, Final residual = 0.000424917, No Iterations 4
GAMG:  Solving for p, Initial residual = 0.00209416, Final residual = 0.000101779, No Iterations 22
GAMG:  Solving for p, Initial residual = 0.00221936, Final residual = 9.52616e-05, No Iterations 6
time step continuity errors : sum local = 1.28212e-07, global = 1.29335e-08
GAMG:  Solving for p, Initial residual = 0.0062681, Final residual = 0.00026566, No Iterations 6
GAMG:  Solving for p, Initial residual = 0.001771, Final residual = 8.28454e-05, No Iterations 20
GAMG:  Solving for p, Initial residual = 0.00145893, Final residual = 9.78406e-07, No Iterations 166
time step continuity errors : sum local = 1.31448e-09, global = 1.38042e-10
PIMPLE: Iteration 2
smoothSolver:  Solving for Ux, Initial residual = 0.0142471, Final residual = 9.86627e-09, No Iterations 2
smoothSolver:  Solving for Uy, Initial residual = 0.00250083, Final residual = 6.78199e-08, No Iterations 2
smoothSolver:  Solving for Uz, Initial residual = 0.00371755, Final residual = 3.08186e-08, No Iterations 2
GAMG:  Solving for p, Initial residual = 0.00768784, Final residual = 0.000332673, No Iterations 6
GAMG:  Solving for p, Initial residual = 0.00247386, Final residual = 0.000118752, No Iterations 16
GAMG:  Solving for p, Initial residual = 0.00172273, Final residual = 8.48554e-05, No Iterations 12
time step continuity errors : sum local = 1.13876e-07, global = 1.08304e-08
GAMG:  Solving for p, Initial residual = 0.00546452, Final residual = 0.000255976, No Iterations 6
GAMG:  Solving for p, Initial residual = 0.00186742, Final residual = 8.79475e-05, No Iterations 18
GAMG:  Solving for p, Initial residual = 0.00144245, Final residual = 9.86627e-07, No Iterations 168
time step continuity errors : sum local = 1.32163e-09, global = 1.39201e-10, cumulative = -2.19341e-10
smoothSolver:  Solving for omega, Initial residual = 0.0342232, Final residual = 1.18561e-08, No Iterations 2
smoothSolver:  Solving for k, Initial residual = 0.530926, Final residual = 6.66588e-09, No Iterations 3
ExecutionTime = 175.182 s  ClockTime = 179 s

Courant Number mean: 0.0308642 max: 5.03413
deltaT = 0.186088
Time = 3.29194s

PIMPLE: Iteration 1
smoothSolver:  Solving for Ux, Initial residual = 0.0443486, Final residual = 7.87736e-06, No Iterations 1
smoothSolver:  Solving for Uy, Initial residual = 0.00776166, Final residual = 1.21576e-05, No Iterations 1
smoothSolver:  Solving for Uz, Initial residual = 0.0113411, Final residual = 9.33301e-06, No Iterations 1
GAMG:  Solving for p, Initial residual = 0.00843693, Final residual = 0.00040356, No Iterations 6
GAMG:  Solving for p, Initial residual = 0.00258989, Final residual = 0.00012902, No Iterations 18
GAMG:  Solving for p, Initial residual = 0.00199924, Final residual = 9.77936e-05, No Iterations 10
time step continuity errors : sum local = 1.28259e-07, global = 1.21725e-08
GAMG:  Solving for p, Initial residual = 0.00598582, Final residual = 0.000243766, No Iterations 8
GAMG:  Solving for p, Initial residual = 0.00213518, Final residual = 0.000104169, No Iterations 16
GAMG:  Solving for p, Initial residual = 0.0013807, Final residual = 9.89886e-07, No Iterations 172
time step continuity errors : sum local = 1.29568e-09, global = 1.36217e-10
PIMPLE: Iteration 2
smoothSolver:  Solving for Ux, Initial residual = 0.0135729, Final residual = 9.09465e-09, No Iterations 2
smoothSolver:  Solving for Uy, Initial residual = 0.00251433, Final residual = 6.21257e-08, No Iterations 2
smoothSolver:  Solving for Uz, Initial residual = 0.00351274, Final residual = 2.81869e-08, No Iterations 2
GAMG:  Solving for p, Initial residual = 0.00744633, Final residual = 0.00029425, No Iterations 8
GAMG:  Solving for p, Initial residual = 0.00297657, Final residual = 0.000143768, No Iterations 12
GAMG:  Solving for p, Initial residual = 0.00153435, Final residual = 7.24648e-05, No Iterations 22
time step continuity errors : sum local = 9.45165e-08, global = 9.56993e-09
GAMG:  Solving for p, Initial residual = 0.00535395, Final residual = 0.000223032, No Iterations 8
GAMG:  Solving for p, Initial residual = 0.00218899, Final residual = 0.000104251, No Iterations 14
GAMG:  Solving for p, Initial residual = 0.00127378, Final residual = 9.97479e-07, No Iterations 172
time step continuity errors : sum local = 1.29814e-09, global = 1.3664e-10, cumulative = -8.27013e-11
smoothSolver:  Solving for omega, Initial residual = 0.0316857, Final residual = 1.07585e-08, No Iterations 2
smoothSolver:  Solving for k, Initial residual = 0.442319, Final residual = 5.50572e-09, No Iterations 3
ExecutionTime = 185.195 s  ClockTime = 189 s

Courant Number mean: 0.0310047 max: 5.04661
deltaT = 0.18389
Time = 3.47583s

PIMPLE: Iteration 1
smoothSolver:  Solving for Ux, Initial residual = 0.0421338, Final residual = 7.36033e-06, No Iterations 1
smoothSolver:  Solving for Uy, Initial residual = 0.00791133, Final residual = 1.13412e-05, No Iterations 1
smoothSolver:  Solving for Uz, Initial residual = 0.0107475, Final residual = 7.98906e-06, No Iterations 1
GAMG:  Solving for p, Initial residual = 0.00827845, Final residual = 0.000411496, No Iterations 6
GAMG:  Solving for p, Initial residual = 0.00257813, Final residual = 0.000122433, No Iterations 20
GAMG:  Solving for p, Initial residual = 0.00219667, Final residual = 0.000108358, No Iterations 6
time step continuity errors : sum local = 1.3735e-07, global = 1.42059e-08
GAMG:  Solving for p, Initial residual = 0.00584067, Final residual = 0.000252901, No Iterations 8
GAMG:  Solving for p, Initial residual = 0.002175, Final residual = 0.000107686, No Iterations 16
GAMG:  Solving for p, Initial residual = 0.00143199, Final residual = 9.75631e-07, No Iterations 174
time step continuity errors : sum local = 1.23457e-09, global = 1.2976e-10
PIMPLE: Iteration 2
smoothSolver:  Solving for Ux, Initial residual = 0.0128908, Final residual = 8.31476e-09, No Iterations 2
smoothSolver:  Solving for Uy, Initial residual = 0.00255951, Final residual = 5.61381e-08, No Iterations 2
smoothSolver:  Solving for Uz, Initial residual = 0.0033764, Final residual = 2.63147e-08, No Iterations 2
GAMG:  Solving for p, Initial residual = 0.00733687, Final residual = 0.000299955, No Iterations 8
GAMG:  Solving for p, Initial residual = 0.00298716, Final residual = 0.000146012, No Iterations 12
GAMG:  Solving for p, Initial residual = 0.00156144, Final residual = 7.39527e-05, No Iterations 22
time step continuity errors : sum local = 9.32429e-08, global = 9.44043e-09
GAMG:  Solving for p, Initial residual = 0.0052987, Final residual = 0.000227909, No Iterations 8
GAMG:  Solving for p, Initial residual = 0.00220027, Final residual = 0.000106114, No Iterations 14
GAMG:  Solving for p, Initial residual = 0.00129861, Final residual = 9.69442e-07, No Iterations 174
time step continuity errors : sum local = 1.21957e-09, global = 1.28328e-10, cumulative = 4.56267e-11
smoothSolver:  Solving for omega, Initial residual = 0.0292844, Final residual = 9.65207e-09, No Iterations 2
smoothSolver:  Solving for k, Initial residual = 0.372346, Final residual = 4.48578e-09, No Iterations 3
ExecutionTime = 195.464 s  ClockTime = 199 s

Courant Number mean: 0.0310016 max: 5.03798
deltaT = 0.182448
Time = 3.658278s

PIMPLE: Iteration 1
smoothSolver:  Solving for Ux, Initial residual = 0.0402263, Final residual = 6.94749e-06, No Iterations 1
smoothSolver:  Solving for Uy, Initial residual = 0.00813087, Final residual = 1.06802e-05, No Iterations 1
smoothSolver:  Solving for Uz, Initial residual = 0.0103969, Final residual = 7.06741e-06, No Iterations 1
GAMG:  Solving for p, Initial residual = 0.00803192, Final residual = 0.000350745, No Iterations 8
GAMG:  Solving for p, Initial residual = 0.00308544, Final residual = 0.000148866, No Iterations 16
GAMG:  Solving for p, Initial residual = 0.00199754, Final residual = 9.98463e-05, No Iterations 14
time step continuity errors : sum local = 1.22954e-07, global = 1.18686e-08
GAMG:  Solving for p, Initial residual = 0.00573228, Final residual = 0.000269377, No Iterations 8
GAMG:  Solving for p, Initial residual = 0.00234281, Final residual = 0.000108798, No Iterations 18
GAMG:  Solving for p, Initial residual = 0.00167107, Final residual = 9.78017e-07, No Iterations 176
time step continuity errors : sum local = 1.20155e-09, global = 1.26306e-10
PIMPLE: Iteration 2
smoothSolver:  Solving for Ux, Initial residual = 0.0122974, Final residual = 7.70718e-09, No Iterations 2
smoothSolver:  Solving for Uy, Initial residual = 0.0026141, Final residual = 5.15529e-08, No Iterations 2
smoothSolver:  Solving for Uz, Initial residual = 0.00326952, Final residual = 2.50735e-08, No Iterations 2
GAMG:  Solving for p, Initial residual = 0.00716545, Final residual = 0.000319113, No Iterations 8
GAMG:  Solving for p, Initial residual = 0.00319496, Final residual = 0.000158238, No Iterations 12
GAMG:  Solving for p, Initial residual = 0.00169423, Final residual = 8.07422e-05, No Iterations 22
time step continuity errors : sum local = 9.88726e-08, global = 1.00192e-08
GAMG:  Solving for p, Initial residual = 0.00526801, Final residual = 0.000243111, No Iterations 8
GAMG:  Solving for p, Initial residual = 0.00236539, Final residual = 0.000115302, No Iterations 14
GAMG:  Solving for p, Initial residual = 0.00141133, Final residual = 9.57154e-07, No Iterations 178
time step continuity errors : sum local = 1.16921e-09, global = 1.23005e-10, cumulative = 1.68631e-10
smoothSolver:  Solving for omega, Initial residual = 0.0272077, Final residual = 8.74835e-09, No Iterations 2
smoothSolver:  Solving for k, Initial residual = 0.316946, Final residual = 3.57542e-09, No Iterations 3
ExecutionTime = 206.12 s  ClockTime = 209 s

Courant Number mean: 0.0311023 max: 5.04876
deltaT = 0.180318
Time = 3.838596s

PIMPLE: Iteration 1
smoothSolver:  Solving for Ux, Initial residual = 0.0382642, Final residual = 6.50514e-06, No Iterations 1
smoothSolver:  Solving for Uy, Initial residual = 0.00825649, Final residual = 9.98335e-06, No Iterations 1
smoothSolver:  Solving for Uz, Initial residual = 0.0100441, Final residual = 6.47196e-06, No Iterations 1
GAMG:  Solving for p, Initial residual = 0.00791962, Final residual = 0.00034884, No Iterations 8
GAMG:  Solving for p, Initial residual = 0.0030655, Final residual = 0.000150058, No Iterations 16
GAMG:  Solving for p, Initial residual = 0.0020171, Final residual = 9.49822e-05, No Iterations 16
time step continuity errors : sum local = 1.13012e-07, global = 1.11227e-08
GAMG:  Solving for p, Initial residual = 0.00573265, Final residual = 0.000267165, No Iterations 8
GAMG:  Solving for p, Initial residual = 0.0023291, Final residual = 0.000109197, No Iterations 18
GAMG:  Solving for p, Initial residual = 0.00167972, Final residual = 9.89883e-07, No Iterations 176
time step continuity errors : sum local = 1.17496e-09, global = 1.23485e-10
PIMPLE: Iteration 2
smoothSolver:  Solving for Ux, Initial residual = 0.0116924, Final residual = 7.06763e-09, No Iterations 2
smoothSolver:  Solving for Uy, Initial residual = 0.00263548, Final residual = 4.69141e-08, No Iterations 2
smoothSolver:  Solving for Uz, Initial residual = 0.00316409, Final residual = 2.3843e-08, No Iterations 2
GAMG:  Solving for p, Initial residual = 0.00716711, Final residual = 0.000317717, No Iterations 8
GAMG:  Solving for p, Initial residual = 0.00317249, Final residual = 0.000149939, No Iterations 14
GAMG:  Solving for p, Initial residual = 0.00184939, Final residual = 8.83906e-05, No Iterations 18
time step continuity errors : sum local = 1.04435e-07, global = 1.0478e-08
GAMG:  Solving for p, Initial residual = 0.00524287, Final residual = 0.000243815, No Iterations 8
GAMG:  Solving for p, Initial residual = 0.00237992, Final residual = 0.000117448, No Iterations 14
GAMG:  Solving for p, Initial residual = 0.00143281, Final residual = 9.85937e-07, No Iterations 178
time step continuity errors : sum local = 1.16249e-09, global = 1.22197e-10, cumulative = 2.90828e-10
smoothSolver:  Solving for omega, Initial residual = 0.0252332, Final residual = 7.8442e-09, No Iterations 2
smoothSolver:  Solving for k, Initial residual = 0.271511, Final residual = 3.00199e-09, No Iterations 3
ExecutionTime = 216.833 s  ClockTime = 220 s

Courant Number mean: 0.0310632 max: 5.0392
deltaT = 0.17892
Time = 4.017516s

PIMPLE: Iteration 1
smoothSolver:  Solving for Ux, Initial residual = 0.0365671, Final residual = 6.14955e-06, No Iterations 1
smoothSolver:  Solving for Uy, Initial residual = 0.00830534, Final residual = 9.42705e-06, No Iterations 1
smoothSolver:  Solving for Uz, Initial residual = 0.00978718, Final residual = 6.33512e-06, No Iterations 1
GAMG:  Solving for p, Initial residual = 0.00798369, Final residual = 0.000369358, No Iterations 8
GAMG:  Solving for p, Initial residual = 0.00330402, Final residual = 0.000163283, No Iterations 16
GAMG:  Solving for p, Initial residual = 0.00220164, Final residual = 0.000103938, No Iterations 16
time step continuity errors : sum local = 1.19951e-07, global = 1.18119e-08
GAMG:  Solving for p, Initial residual = 0.0058127, Final residual = 0.000283518, No Iterations 8
GAMG:  Solving for p, Initial residual = 0.00252402, Final residual = 0.000119035, No Iterations 18
GAMG:  Solving for p, Initial residual = 0.00183465, Final residual = 9.8313e-07, No Iterations 180
time step continuity errors : sum local = 1.13163e-09, global = 1.18851e-10
PIMPLE: Iteration 2
smoothSolver:  Solving for Ux, Initial residual = 0.0111652, Final residual = 6.58061e-09, No Iterations 2
smoothSolver:  Solving for Uy, Initial residual = 0.00264168, Final residual = 4.34247e-08, No Iterations 2
smoothSolver:  Solving for Uz, Initial residual = 0.00308893, Final residual = 2.29501e-08, No Iterations 2
GAMG:  Solving for p, Initial residual = 0.00729856, Final residual = 0.000334837, No Iterations 8
GAMG:  Solving for p, Initial residual = 0.00335459, Final residual = 0.000161166, No Iterations 14
GAMG:  Solving for p, Initial residual = 0.00198331, Final residual = 9.5445e-05, No Iterations 18
time step continuity errors : sum local = 1.09345e-07, global = 1.0975e-08
GAMG:  Solving for p, Initial residual = 0.00538534, Final residual = 0.000257468, No Iterations 8
GAMG:  Solving for p, Initial residual = 0.00253078, Final residual = 0.000126371, No Iterations 14
GAMG:  Solving for p, Initial residual = 0.00153824, Final residual = 9.63435e-07, No Iterations 182
time step continuity errors : sum local = 1.10129e-09, global = 1.15675e-10, cumulative = 4.06504e-10
smoothSolver:  Solving for omega, Initial residual = 0.0235262, Final residual = 7.15581e-09, No Iterations 2
smoothSolver:  Solving for k, Initial residual = 0.235648, Final residual = 2.66164e-09, No Iterations 3
ExecutionTime = 227.95 s  ClockTime = 231 s

Courant Number mean: 0.0311292 max: 5.04857
deltaT = 0.176856
Time = 4.194372s

PIMPLE: Iteration 1
smoothSolver:  Solving for Ux, Initial residual = 0.0348106, Final residual = 5.76917e-06, No Iterations 1
smoothSolver:  Solving for Uy, Initial residual = 0.00826854, Final residual = 8.85088e-06, No Iterations 1
smoothSolver:  Solving for Uz, Initial residual = 0.0095541, Final residual = 6.34921e-06, No Iterations 1
GAMG:  Solving for p, Initial residual = 0.00808148, Final residual = 0.000366493, No Iterations 8
GAMG:  Solving for p, Initial residual = 0.00326757, Final residual = 0.000152025, No Iterations 18
GAMG:  Solving for p, Initial residual = 0.00235385, Final residual = 0.000112451, No Iterations 12
time step continuity errors : sum local = 1.25096e-07, global = 1.18156e-08
GAMG:  Solving for p, Initial residual = 0.00583569, Final residual = 0.000283419, No Iterations 8
GAMG:  Solving for p, Initial residual = 0.00252607, Final residual = 0.00012036, No Iterations 18
GAMG:  Solving for p, Initial residual = 0.00185398, Final residual = 9.51243e-07, No Iterations 182
time step continuity errors : sum local = 1.05586e-09, global = 1.1081e-10
PIMPLE: Iteration 2
smoothSolver:  Solving for Ux, Initial residual = 0.010625, Final residual = 6.05446e-09, No Iterations 2
smoothSolver:  Solving for Uy, Initial residual = 0.0026176, Final residual = 3.98938e-08, No Iterations 2
smoothSolver:  Solving for Uz, Initial residual = 0.00301667, Final residual = 2.24555e-08, No Iterations 2
GAMG:  Solving for p, Initial residual = 0.00742285, Final residual = 0.000335606, No Iterations 8
GAMG:  Solving for p, Initial residual = 0.00332405, Final residual = 0.000162562, No Iterations 14
GAMG:  Solving for p, Initial residual = 0.0019952, Final residual = 9.65197e-05, No Iterations 18
time step continuity errors : sum local = 1.06634e-07, global = 1.07009e-08
GAMG:  Solving for p, Initial residual = 0.00549679, Final residual = 0.000258536, No Iterations 8
GAMG:  Solving for p, Initial residual = 0.00251848, Final residual = 0.000119414, No Iterations 16
GAMG:  Solving for p, Initial residual = 0.00166609, Final residual = 9.90272e-07, No Iterations 180
time step continuity errors : sum local = 1.09127e-09, global = 1.14558e-10, cumulative = 5.21062e-10
smoothSolver:  Solving for omega, Initial residual = 0.0218956, Final residual = 6.45731e-09, No Iterations 2
smoothSolver:  Solving for k, Initial residual = 0.205794, Final residual = 2.22107e-09, No Iterations 3
ExecutionTime = 239.063 s  ClockTime = 242 s

Courant Number mean: 0.0310594 max: 5.03704
deltaT = 0.1755
Time = 4.369872s

PIMPLE: Iteration 1
smoothSolver:  Solving for Ux, Initial residual = 0.0332858, Final residual = 5.46924e-06, No Iterations 1
smoothSolver:  Solving for Uy, Initial residual = 0.00819334, Final residual = 8.38486e-06, No Iterations 1
smoothSolver:  Solving for Uz, Initial residual = 0.00938899, Final residual = 6.44957e-06, No Iterations 1
GAMG:  Solving for p, Initial residual = 0.00823499, Final residual = 0.000390734, No Iterations 8
GAMG:  Solving for p, Initial residual = 0.00349688, Final residual = 0.000163894, No Iterations 18
GAMG:  Solving for p, Initial residual = 0.00254733, Final residual = 0.000127056, No Iterations 10
time step continuity errors : sum local = 1.36919e-07, global = 1.31356e-08
GAMG:  Solving for p, Initial residual = 0.00592453, Final residual = 0.000249699, No Iterations 10
GAMG:  Solving for p, Initial residual = 0.00293421, Final residual = 0.000142719, No Iterations 14
GAMG:  Solving for p, Initial residual = 0.00171382, Final residual = 9.73971e-07, No Iterations 186
time step continuity errors : sum local = 1.04724e-09, global = 1.09819e-10
PIMPLE: Iteration 2
smoothSolver:  Solving for Ux, Initial residual = 0.0101505, Final residual = 5.64595e-09, No Iterations 2
smoothSolver:  Solving for Uy, Initial residual = 0.00259625, Final residual = 3.7272e-08, No Iterations 2
smoothSolver:  Solving for Uz, Initial residual = 0.00297867, Final residual = 2.24078e-08, No Iterations 2
GAMG:  Solving for p, Initial residual = 0.0076858, Final residual = 0.000356416, No Iterations 8
GAMG:  Solving for p, Initial residual = 0.00351566, Final residual = 0.000173434, No Iterations 14
GAMG:  Solving for p, Initial residual = 0.00213387, Final residual = 0.000103201, No Iterations 18
time step continuity errors : sum local = 1.10432e-07, global = 1.10755e-08
GAMG:  Solving for p, Initial residual = 0.00571287, Final residual = 0.00027496, No Iterations 8
GAMG:  Solving for p, Initial residual = 0.00267272, Final residual = 0.000127527, No Iterations 16
GAMG:  Solving for p, Initial residual = 0.00178291, Final residual = 9.55442e-07, No Iterations 184
time step continuity errors : sum local = 1.01961e-09, global = 1.06935e-10, cumulative = 6.27997e-10
smoothSolver:  Solving for omega, Initial residual = 0.020481, Final residual = 5.87703e-09, No Iterations 2
smoothSolver:  Solving for k, Initial residual = 0.181675, Final residual = 8.78755e-08, No Iterations 2
ExecutionTime = 250.209 s  ClockTime = 254 s

Courant Number mean: 0.0310957 max: 5.04343
deltaT = 0.173499
Time = 4.543371s

PIMPLE: Iteration 1
smoothSolver:  Solving for Ux, Initial residual = 0.0317006, Final residual = 5.12839e-06, No Iterations 1
smoothSolver:  Solving for Uy, Initial residual = 0.00811538, Final residual = 7.8978e-06, No Iterations 1
smoothSolver:  Solving for Uz, Initial residual = 0.00925948, Final residual = 6.5316e-06, No Iterations 1
GAMG:  Solving for p, Initial residual = 0.00840652, Final residual = 0.000392735, No Iterations 8
GAMG:  Solving for p, Initial residual = 0.00348738, Final residual = 0.00016415, No Iterations 18
GAMG:  Solving for p, Initial residual = 0.00256026, Final residual = 0.000127302, No Iterations 10
time step continuity errors : sum local = 1.32138e-07, global = 1.26716e-08
GAMG:  Solving for p, Initial residual = 0.0060516, Final residual = 0.000251063, No Iterations 10
GAMG:  Solving for p, Initial residual = 0.00293459, Final residual = 0.000142984, No Iterations 14
GAMG:  Solving for p, Initial residual = 0.0017191, Final residual = 9.79021e-07, No Iterations 186
time step continuity errors : sum local = 1.01394e-09, global = 1.0624e-10
PIMPLE: Iteration 2
smoothSolver:  Solving for Ux, Initial residual = 0.00965888, Final residual = 5.18592e-09, No Iterations 2
smoothSolver:  Solving for Uy, Initial residual = 0.00256464, Final residual = 3.46138e-08, No Iterations 2
smoothSolver:  Solving for Uz, Initial residual = 0.0029622, Final residual = 2.16803e-08, No Iterations 2
GAMG:  Solving for p, Initial residual = 0.00785945, Final residual = 0.000360386, No Iterations 8
GAMG:  Solving for p, Initial residual = 0.0035186, Final residual = 0.000174799, No Iterations 14
GAMG:  Solving for p, Initial residual = 0.00215719, Final residual = 0.000104185, No Iterations 18
time step continuity errors : sum local = 1.07375e-07, global = 1.07684e-08
GAMG:  Solving for p, Initial residual = 0.00585274, Final residual = 0.00027843, No Iterations 8
GAMG:  Solving for p, Initial residual = 0.00267848, Final residual = 0.000128706, No Iterations 16
GAMG:  Solving for p, Initial residual = 0.00180356, Final residual = 9.66023e-07, No Iterations 184
time step continuity errors : sum local = 9.92876e-10, global = 1.04101e-10, cumulative = 7.32099e-10
smoothSolver:  Solving for omega, Initial residual = 0.0191194, Final residual = 5.29811e-09, No Iterations 2
smoothSolver:  Solving for k, Initial residual = 0.161018, Final residual = 7.39681e-08, No Iterations 2
ExecutionTime = 261.35 s  ClockTime = 265 s

Courant Number mean: 0.0310008 max: 5.02855
deltaT = 0.172184
Time = 4.715555s

PIMPLE: Iteration 1
smoothSolver:  Solving for Ux, Initial residual = 0.0303105, Final residual = 4.84716e-06, No Iterations 1
smoothSolver:  Solving for Uy, Initial residual = 0.00805109, Final residual = 7.51026e-06, No Iterations 1
smoothSolver:  Solving for Uz, Initial residual = 0.00923818, Final residual = 6.65768e-06, No Iterations 1
GAMG:  Solving for p, Initial residual = 0.00852107, Final residual = 0.000417964, No Iterations 8
GAMG:  Solving for p, Initial residual = 0.00376091, Final residual = 0.000176112, No Iterations 18
GAMG:  Solving for p, Initial residual = 0.00276116, Final residual = 0.000136698, No Iterations 10
time step continuity errors : sum local = 1.37251e-07, global = 1.31638e-08
GAMG:  Solving for p, Initial residual = 0.00614688, Final residual = 0.00026788, No Iterations 10
GAMG:  Solving for p, Initial residual = 0.00317707, Final residual = 0.000153312, No Iterations 14
GAMG:  Solving for p, Initial residual = 0.00185913, Final residual = 9.49088e-07, No Iterations 190
time step continuity errors : sum local = 9.50638e-10, global = 9.95888e-11
PIMPLE: Iteration 2
smoothSolver:  Solving for Ux, Initial residual = 0.00922146, Final residual = 4.81906e-09, No Iterations 2
smoothSolver:  Solving for Uy, Initial residual = 0.00254428, Final residual = 3.26501e-08, No Iterations 2
smoothSolver:  Solving for Uz, Initial residual = 0.00297176, Final residual = 2.14586e-08, No Iterations 2
GAMG:  Solving for p, Initial residual = 0.00805856, Final residual = 0.000380687, No Iterations 8
GAMG:  Solving for p, Initial residual = 0.00374834, Final residual = 0.000185593, No Iterations 14
GAMG:  Solving for p, Initial residual = 0.00230238, Final residual = 0.000110843, No Iterations 18
time step continuity errors : sum local = 1.10451e-07, global = 1.10789e-08
GAMG:  Solving for p, Initial residual = 0.00602415, Final residual = 0.000294423, No Iterations 8
GAMG:  Solving for p, Initial residual = 0.00285571, Final residual = 0.000136793, No Iterations 16
GAMG:  Solving for p, Initial residual = 0.00192463, Final residual = 9.75752e-07, No Iterations 186
time step continuity errors : sum local = 9.69477e-10, global = 1.01621e-10, cumulative = 8.3372e-10
smoothSolver:  Solving for omega, Initial residual = 0.0179359, Final residual = 4.85651e-09, No Iterations 2
smoothSolver:  Solving for k, Initial residual = 0.144028, Final residual = 6.4493e-08, No Iterations 2
ExecutionTime = 272.603 s  ClockTime = 276 s

Courant Number mean: 0.0310162 max: 5.03088
deltaT = 0.170885
Time = 4.88644s

PIMPLE: Iteration 1
smoothSolver:  Solving for Ux, Initial residual = 0.028954, Final residual = 4.5804e-06, No Iterations 1
smoothSolver:  Solving for Uy, Initial residual = 0.00800064, Final residual = 7.15142e-06, No Iterations 1
smoothSolver:  Solving for Uz, Initial residual = 0.0092582, Final residual = 6.80566e-06, No Iterations 1
GAMG:  Solving for p, Initial residual = 0.00860404, Final residual = 0.000352032, No Iterations 10
GAMG:  Solving for p, Initial residual = 0.00423524, Final residual = 0.000199548, No Iterations 14
GAMG:  Solving for p, Initial residual = 0.0024521, Final residual = 0.000118692, No Iterations 18
time step continuity errors : sum local = 1.15201e-07, global = 1.1554e-08
GAMG:  Solving for p, Initial residual = 0.00641975, Final residual = 0.000272197, No Iterations 10
GAMG:  Solving for p, Initial residual = 0.00325211, Final residual = 0.000156164, No Iterations 14
GAMG:  Solving for p, Initial residual = 0.00190333, Final residual = 9.6822e-07, No Iterations 190
time step continuity errors : sum local = 9.37107e-10, global = 9.81504e-11
PIMPLE: Iteration 2
smoothSolver:  Solving for Ux, Initial residual = 0.00879763, Final residual = 4.4846e-09, No Iterations 2
smoothSolver:  Solving for Uy, Initial residual = 0.00252553, Final residual = 3.11924e-08, No Iterations 2
smoothSolver:  Solving for Uz, Initial residual = 0.00299733, Final residual = 2.11847e-08, No Iterations 2
GAMG:  Solving for p, Initial residual = 0.00818992, Final residual = 0.000391979, No Iterations 8
GAMG:  Solving for p, Initial residual = 0.00390251, Final residual = 0.000191779, No Iterations 14
GAMG:  Solving for p, Initial residual = 0.00239343, Final residual = 0.000114741, No Iterations 18
time step continuity errors : sum local = 1.10478e-07, global = 1.10834e-08
GAMG:  Solving for p, Initial residual = 0.00614015, Final residual = 0.00030339, No Iterations 8
GAMG:  Solving for p, Initial residual = 0.00297218, Final residual = 0.000141474, No Iterations 16
GAMG:  Solving for p, Initial residual = 0.00199979, Final residual = 9.59488e-07, No Iterations 188
time step continuity errors : sum local = 9.21058e-10, global = 9.65223e-11, cumulative = 9.30242e-10
smoothSolver:  Solving for omega, Initial residual = 0.0168501, Final residual = 4.48607e-09, No Iterations 2
smoothSolver:  Solving for k, Initial residual = 0.129535, Final residual = 5.57499e-08, No Iterations 2
ExecutionTime = 284.114 s  ClockTime = 288 s

Courant Number mean: 0.0310237 max: 5.031
deltaT = 0.1696
Time = 5.05604s

PIMPLE: Iteration 1
smoothSolver:  Solving for Ux, Initial residual = 0.0276527, Final residual = 4.32574e-06, No Iterations 1
smoothSolver:  Solving for Uy, Initial residual = 0.00794588, Final residual = 6.82198e-06, No Iterations 1
smoothSolver:  Solving for Uz, Initial residual = 0.00934549, Final residual = 6.89391e-06, No Iterations 1
GAMG:  Solving for p, Initial residual = 0.00879602, Final residual = 0.000361552, No Iterations 10
GAMG:  Solving for p, Initial residual = 0.0044127, Final residual = 0.000220526, No Iterations 12
GAMG:  Solving for p, Initial residual = 0.0023566, Final residual = 0.00011417, No Iterations 22
time step continuity errors : sum local = 1.07041e-07, global = 1.08523e-08
GAMG:  Solving for p, Initial residual = 0.00668469, Final residual = 0.000278491, No Iterations 10
GAMG:  Solving for p, Initial residual = 0.00336103, Final residual = 0.000160657, No Iterations 14
GAMG:  Solving for p, Initial residual = 0.00196601, Final residual = 9.98495e-07, No Iterations 190
time step continuity errors : sum local = 9.32903e-10, global = 9.76904e-11
PIMPLE: Iteration 2
smoothSolver:  Solving for Ux, Initial residual = 0.008392, Final residual = 4.17713e-09, No Iterations 2
smoothSolver:  Solving for Uy, Initial residual = 0.00250394, Final residual = 2.95313e-08, No Iterations 2
smoothSolver:  Solving for Uz, Initial residual = 0.00302159, Final residual = 2.08385e-08, No Iterations 2
GAMG:  Solving for p, Initial residual = 0.00837905, Final residual = 0.000402017, No Iterations 8
GAMG:  Solving for p, Initial residual = 0.0040465, Final residual = 0.000197805, No Iterations 14
GAMG:  Solving for p, Initial residual = 0.00247672, Final residual = 0.000118507, No Iterations 18
time step continuity errors : sum local = 1.10134e-07, global = 1.10493e-08
GAMG:  Solving for p, Initial residual = 0.00630656, Final residual = 0.000311424, No Iterations 8
GAMG:  Solving for p, Initial residual = 0.00308174, Final residual = 0.000146005, No Iterations 16
GAMG:  Solving for p, Initial residual = 0.002069, Final residual = 9.92024e-07, No Iterations 188
time step continuity errors : sum local = 9.19076e-10, global = 9.6295e-11, cumulative = 1.02654e-09
smoothSolver:  Solving for omega, Initial residual = 0.0158513, Final residual = 4.12867e-09, No Iterations 2
smoothSolver:  Solving for k, Initial residual = 0.117067, Final residual = 4.87383e-08, No Iterations 2
ExecutionTime = 295.744 s  ClockTime = 299 s

Courant Number mean: 0.0310213 max: 5.02884
deltaT = 0.168329
Time = 5.224369s

PIMPLE: Iteration 1
smoothSolver:  Solving for Ux, Initial residual = 0.0263941, Final residual = 4.08164e-06, No Iterations 1
smoothSolver:  Solving for Uy, Initial residual = 0.00787496, Final residual = 6.51686e-06, No Iterations 1
smoothSolver:  Solving for Uz, Initial residual = 0.00941756, Final residual = 6.90611e-06, No Iterations 1
GAMG:  Solving for p, Initial residual = 0.00901157, Final residual = 0.000371344, No Iterations 10
GAMG:  Solving for p, Initial residual = 0.00459386, Final residual = 0.00022768, No Iterations 12
GAMG:  Solving for p, Initial residual = 0.0024476, Final residual = 0.00011809, No Iterations 22
time step continuity errors : sum local = 1.0682e-07, global = 1.08328e-08
GAMG:  Solving for p, Initial residual = 0.00686542, Final residual = 0.000286278, No Iterations 10
GAMG:  Solving for p, Initial residual = 0.00349737, Final residual = 0.000165985, No Iterations 14
GAMG:  Solving for p, Initial residual = 0.00204099, Final residual = 9.81674e-07, No Iterations 192
time step continuity errors : sum local = 8.84813e-10, global = 9.26422e-11
PIMPLE: Iteration 2
smoothSolver:  Solving for Ux, Initial residual = 0.00800425, Final residual = 3.89731e-09, No Iterations 2
smoothSolver:  Solving for Uy, Initial residual = 0.00247792, Final residual = 2.82467e-08, No Iterations 2
smoothSolver:  Solving for Uz, Initial residual = 0.00303641, Final residual = 2.04556e-08, No Iterations 2
GAMG:  Solving for p, Initial residual = 0.00857477, Final residual = 0.000411401, No Iterations 8
GAMG:  Solving for p, Initial residual = 0.00418705, Final residual = 0.000203378, No Iterations 14
GAMG:  Solving for p, Initial residual = 0.00255421, Final residual = 0.000121969, No Iterations 18
time step continuity errors : sum local = 1.09338e-07, global = 1.09699e-08
GAMG:  Solving for p, Initial residual = 0.00647245, Final residual = 0.000318921, No Iterations 8
[...]
GAMG:  Solving for p, Initial residual = 0.00107902, Final residual = 4.83055e-05, No Iterations 4
GAMG:  Solving for p, Initial residual = 0.000297797, Final residual = 1.27746e-05, No Iterations 11
GAMG:  Solving for p, Initial residual = 0.000146745, Final residual = 9.41412e-07, No Iterations 60
time step continuity errors : sum local = 7.64752e-11, global = 8.04558e-12
PIMPLE: Iteration 2
smoothSolver:  Solving for Ux, Initial residual = 4.48091e-05, Final residual = 1.76144e-08, No Iterations 1
smoothSolver:  Solving for Uy, Initial residual = 0.000406069, Final residual = 1.28388e-09, No Iterations 2
smoothSolver:  Solving for Uz, Initial residual = 0.000934688, Final residual = 1.89974e-09, No Iterations 2
GAMG:  Solving for p, Initial residual = 0.00156823, Final residual = 7.52458e-05, No Iterations 4
GAMG:  Solving for p, Initial residual = 0.000472678, Final residual = 2.12538e-05, No Iterations 14
GAMG:  Solving for p, Initial residual = 0.000292033, Final residual = 1.35938e-05, No Iterations 12
time step continuity errors : sum local = 1.1038e-09, global = 1.32003e-10
GAMG:  Solving for p, Initial residual = 0.00110961, Final residual = 5.36282e-05, No Iterations 4
GAMG:  Solving for p, Initial residual = 0.000331687, Final residual = 1.55985e-05, No Iterations 16
GAMG:  Solving for p, Initial residual = 0.000238684, Final residual = 9.76895e-07, No Iterations 99
time step continuity errors : sum local = 7.93173e-11, global = -8.60706e-12, cumulative = -5.29869e-10
smoothSolver:  Solving for omega, Initial residual = 0.000281525, Final residual = 1.31137e-09, No Iterations 2
smoothSolver:  Solving for k, Initial residual = 0.000187998, Final residual = 5.86856e-10, No Iterations 2
ExecutionTime = 6010.84 s  ClockTime = 6020 s

Courant Number mean: 0.0646442 max: 4.86009
deltaT = 0.331557
Time = 198.010656s

PIMPLE: Iteration 1
smoothSolver:  Solving for Ux, Initial residual = 0.000147214, Final residual = 5.39079e-08, No Iterations 1
smoothSolver:  Solving for Uy, Initial residual = 0.00133293, Final residual = 5.90527e-07, No Iterations 1
smoothSolver:  Solving for Uz, Initial residual = 0.00307589, Final residual = 9.92785e-07, No Iterations 1
GAMG:  Solving for p, Initial residual = 0.00152174, Final residual = 6.78309e-05, No Iterations 4
GAMG:  Solving for p, Initial residual = 0.000425306, Final residual = 1.99897e-05, No Iterations 9
GAMG:  Solving for p, Initial residual = 0.000191631, Final residual = 8.70939e-06, No Iterations 14
time step continuity errors : sum local = 7.0728e-10, global = 6.22031e-11
GAMG:  Solving for p, Initial residual = 0.00106918, Final residual = 4.83244e-05, No Iterations 4
GAMG:  Solving for p, Initial residual = 0.00029773, Final residual = 1.48841e-05, No Iterations 9
GAMG:  Solving for p, Initial residual = 0.00013725, Final residual = 9.85557e-07, No Iterations 60
time step continuity errors : sum local = 8.00362e-11, global = 8.43247e-12
PIMPLE: Iteration 2
smoothSolver:  Solving for Ux, Initial residual = 4.47511e-05, Final residual = 1.75322e-08, No Iterations 1
smoothSolver:  Solving for Uy, Initial residual = 0.000405973, Final residual = 1.27321e-09, No Iterations 2
smoothSolver:  Solving for Uz, Initial residual = 0.000932554, Final residual = 1.89093e-09, No Iterations 2
GAMG:  Solving for p, Initial residual = 0.00155667, Final residual = 7.50848e-05, No Iterations 4
GAMG:  Solving for p, Initial residual = 0.00046977, Final residual = 2.12264e-05, No Iterations 14
GAMG:  Solving for p, Initial residual = 0.000291234, Final residual = 1.35707e-05, No Iterations 12
time step continuity errors : sum local = 1.10157e-09, global = 1.31674e-10
GAMG:  Solving for p, Initial residual = 0.00110147, Final residual = 5.35183e-05, No Iterations 4
GAMG:  Solving for p, Initial residual = 0.000329651, Final residual = 1.55769e-05, No Iterations 16
GAMG:  Solving for p, Initial residual = 0.000238097, Final residual = 9.7511e-07, No Iterations 99
time step continuity errors : sum local = 7.91472e-11, global = -8.58766e-12, cumulative = -5.38457e-10
smoothSolver:  Solving for omega, Initial residual = 0.000281527, Final residual = 1.31125e-09, No Iterations 2
smoothSolver:  Solving for k, Initial residual = 0.00018765, Final residual = 5.83096e-10, No Iterations 2
bounding k, min: -0.00122355 max: 10.1917 average: 1.21983
ExecutionTime = 6017 s  ClockTime = 6026 s

Courant Number mean: 0.0646422 max: 4.85901
deltaT = 0.331557
Time = 198.342213s

PIMPLE: Iteration 1
smoothSolver:  Solving for Ux, Initial residual = 0.000147029, Final residual = 5.36646e-08, No Iterations 1
smoothSolver:  Solving for Uy, Initial residual = 0.0013326, Final residual = 5.89179e-07, No Iterations 1
smoothSolver:  Solving for Uz, Initial residual = 0.00306839, Final residual = 9.88501e-07, No Iterations 1
GAMG:  Solving for p, Initial residual = 0.00150994, Final residual = 6.79695e-05, No Iterations 4
GAMG:  Solving for p, Initial residual = 0.00042306, Final residual = 1.99207e-05, No Iterations 9
GAMG:  Solving for p, Initial residual = 0.00019114, Final residual = 8.659e-06, No Iterations 14
time step continuity errors : sum local = 7.02969e-10, global = 6.16923e-11
GAMG:  Solving for p, Initial residual = 0.00106111, Final residual = 4.84085e-05, No Iterations 4
GAMG:  Solving for p, Initial residual = 0.000296018, Final residual = 1.26378e-05, No Iterations 11
GAMG:  Solving for p, Initial residual = 0.000145726, Final residual = 9.84973e-07, No Iterations 58
time step continuity errors : sum local = 7.99634e-11, global = 8.41906e-12
PIMPLE: Iteration 2
smoothSolver:  Solving for Ux, Initial residual = 4.46931e-05, Final residual = 1.74485e-08, No Iterations 1
smoothSolver:  Solving for Uy, Initial residual = 0.000405877, Final residual = 1.26295e-09, No Iterations 2
smoothSolver:  Solving for Uz, Initial residual = 0.00093007, Final residual = 1.8823e-09, No Iterations 2
GAMG:  Solving for p, Initial residual = 0.00154205, Final residual = 7.5319e-05, No Iterations 4
GAMG:  Solving for p, Initial residual = 0.000466492, Final residual = 2.12004e-05, No Iterations 14
GAMG:  Solving for p, Initial residual = 0.000290497, Final residual = 1.35437e-05, No Iterations 12
time step continuity errors : sum local = 1.09904e-09, global = 1.31375e-10
GAMG:  Solving for p, Initial residual = 0.0010914, Final residual = 5.35879e-05, No Iterations 4
GAMG:  Solving for p, Initial residual = 0.000326575, Final residual = 1.55717e-05, No Iterations 16
GAMG:  Solving for p, Initial residual = 0.000237868, Final residual = 9.73254e-07, No Iterations 99
time step continuity errors : sum local = 7.8972e-11, global = -8.56536e-12, cumulative = -5.47022e-10
smoothSolver:  Solving for omega, Initial residual = 0.000281532, Final residual = 1.31092e-09, No Iterations 2
smoothSolver:  Solving for k, Initial residual = 0.000187315, Final residual = 5.7922e-10, No Iterations 2
bounding k, min: -0.00170452 max: 10.1917 average: 1.21974
ExecutionTime = 6023.15 s  ClockTime = 6032 s

Courant Number mean: 0.0646402 max: 4.85794
deltaT = 0.331557
Time = 198.673771s

PIMPLE: Iteration 1
smoothSolver:  Solving for Ux, Initial residual = 0.000146844, Final residual = 5.34159e-08, No Iterations 1
smoothSolver:  Solving for Uy, Initial residual = 0.00133235, Final residual = 5.87782e-07, No Iterations 1
smoothSolver:  Solving for Uz, Initial residual = 0.00305981, Final residual = 9.84422e-07, No Iterations 1
GAMG:  Solving for p, Initial residual = 0.00149984, Final residual = 6.8484e-05, No Iterations 4
GAMG:  Solving for p, Initial residual = 0.000420361, Final residual = 1.98017e-05, No Iterations 9
GAMG:  Solving for p, Initial residual = 0.000190606, Final residual = 8.5837e-06, No Iterations 14
time step continuity errors : sum local = 6.96638e-10, global = 6.09899e-11
GAMG:  Solving for p, Initial residual = 0.00105374, Final residual = 4.8744e-05, No Iterations 4
GAMG:  Solving for p, Initial residual = 0.000293959, Final residual = 1.25602e-05, No Iterations 11
GAMG:  Solving for p, Initial residual = 0.000145366, Final residual = 9.73392e-07, No Iterations 58
time step continuity errors : sum local = 7.89985e-11, global = 8.3175e-12
PIMPLE: Iteration 2
smoothSolver:  Solving for Ux, Initial residual = 4.46359e-05, Final residual = 1.73645e-08, No Iterations 1
smoothSolver:  Solving for Uy, Initial residual = 0.000405763, Final residual = 1.25249e-09, No Iterations 2
smoothSolver:  Solving for Uz, Initial residual = 0.000927503, Final residual = 1.87296e-09, No Iterations 2
GAMG:  Solving for p, Initial residual = 0.00153129, Final residual = 7.56449e-05, No Iterations 4
GAMG:  Solving for p, Initial residual = 0.000464033, Final residual = 2.11307e-05, No Iterations 14
GAMG:  Solving for p, Initial residual = 0.000289228, Final residual = 1.34961e-05, No Iterations 12
time step continuity errors : sum local = 1.09484e-09, global = 1.31073e-10
GAMG:  Solving for p, Initial residual = 0.00108414, Final residual = 5.3653e-05, No Iterations 4
GAMG:  Solving for p, Initial residual = 0.000323804, Final residual = 1.55466e-05, No Iterations 16
GAMG:  Solving for p, Initial residual = 0.000237288, Final residual = 9.71364e-07, No Iterations 99
time step continuity errors : sum local = 7.87942e-11, global = -8.54108e-12, cumulative = -5.55564e-10
smoothSolver:  Solving for omega, Initial residual = 0.000281532, Final residual = 1.31095e-09, No Iterations 2
smoothSolver:  Solving for k, Initial residual = 0.000186976, Final residual = 5.75346e-10, No Iterations 2
bounding k, min: -0.0187015 max: 10.1917 average: 1.21965
ExecutionTime = 6029.3 s  ClockTime = 6038 s

Courant Number mean: 0.0646382 max: 4.85688
deltaT = 0.331557
Time = 199.005328s

PIMPLE: Iteration 1
smoothSolver:  Solving for Ux, Initial residual = 0.000146661, Final residual = 5.31671e-08, No Iterations 1
smoothSolver:  Solving for Uy, Initial residual = 0.00133206, Final residual = 5.863e-07, No Iterations 1
smoothSolver:  Solving for Uz, Initial residual = 0.00305116, Final residual = 9.8046e-07, No Iterations 1
GAMG:  Solving for p, Initial residual = 0.00149355, Final residual = 6.91366e-05, No Iterations 4
GAMG:  Solving for p, Initial residual = 0.000420425, Final residual = 1.97209e-05, No Iterations 9
GAMG:  Solving for p, Initial residual = 0.000190769, Final residual = 9.5337e-06, No Iterations 12
time step continuity errors : sum local = 7.73485e-10, global = 6.37628e-11
GAMG:  Solving for p, Initial residual = 0.00104854, Final residual = 4.93258e-05, No Iterations 4
GAMG:  Solving for p, Initial residual = 0.000294415, Final residual = 1.26152e-05, No Iterations 11
GAMG:  Solving for p, Initial residual = 0.000146206, Final residual = 9.73596e-07, No Iterations 58
time step continuity errors : sum local = 7.89892e-11, global = 8.31166e-12
PIMPLE: Iteration 2
smoothSolver:  Solving for Ux, Initial residual = 4.4579e-05, Final residual = 1.72809e-08, No Iterations 1
smoothSolver:  Solving for Uy, Initial residual = 0.000405681, Final residual = 1.24148e-09, No Iterations 2
smoothSolver:  Solving for Uz, Initial residual = 0.000924823, Final residual = 1.8634e-09, No Iterations 2
GAMG:  Solving for p, Initial residual = 0.00152837, Final residual = 6.47285e-05, No Iterations 5
GAMG:  Solving for p, Initial residual = 0.000489572, Final residual = 2.37061e-05, No Iterations 11
GAMG:  Solving for p, Initial residual = 0.000245916, Final residual = 1.21008e-05, No Iterations 17
time step continuity errors : sum local = 9.81313e-10, global = -1.30188e-10
GAMG:  Solving for p, Initial residual = 0.00108823, Final residual = 4.39806e-05, No Iterations 6
GAMG:  Solving for p, Initial residual = 0.000400312, Final residual = 1.9763e-05, No Iterations 8
GAMG:  Solving for p, Initial residual = 0.000159357, Final residual = 9.96334e-07, No Iterations 98
time step continuity errors : sum local = 8.07902e-11, global = -8.75518e-12, cumulative = -5.64319e-10
smoothSolver:  Solving for omega, Initial residual = 0.000281553, Final residual = 1.31058e-09, No Iterations 2
smoothSolver:  Solving for k, Initial residual = 0.000186626, Final residual = 5.7128e-10, No Iterations 2
ExecutionTime = 6035.33 s  ClockTime = 6044 s

Courant Number mean: 0.0646362 max: 4.85584
deltaT = 0.331557
Time = 199.336885s

PIMPLE: Iteration 1
smoothSolver:  Solving for Ux, Initial residual = 0.000146476, Final residual = 5.29202e-08, No Iterations 1
smoothSolver:  Solving for Uy, Initial residual = 0.00133178, Final residual = 5.84839e-07, No Iterations 1
smoothSolver:  Solving for Uz, Initial residual = 0.00304254, Final residual = 9.76625e-07, No Iterations 1
GAMG:  Solving for p, Initial residual = 0.00149289, Final residual = 6.97789e-05, No Iterations 4
GAMG:  Solving for p, Initial residual = 0.000417981, Final residual = 1.96539e-05, No Iterations 9
GAMG:  Solving for p, Initial residual = 0.000190543, Final residual = 9.46448e-06, No Iterations 12
time step continuity errors : sum local = 7.67623e-10, global = 6.29266e-11
GAMG:  Solving for p, Initial residual = 0.00104772, Final residual = 4.97252e-05, No Iterations 4
GAMG:  Solving for p, Initial residual = 0.000292418, Final residual = 1.25644e-05, No Iterations 11
GAMG:  Solving for p, Initial residual = 0.000145993, Final residual = 9.55077e-07, No Iterations 58
time step continuity errors : sum local = 7.74619e-11, global = 8.15514e-12
PIMPLE: Iteration 2
smoothSolver:  Solving for Ux, Initial residual = 4.45216e-05, Final residual = 1.71987e-08, No Iterations 1
smoothSolver:  Solving for Uy, Initial residual = 0.000405597, Final residual = 1.23032e-09, No Iterations 2
smoothSolver:  Solving for Uz, Initial residual = 0.000922095, Final residual = 1.85417e-09, No Iterations 2
GAMG:  Solving for p, Initial residual = 0.00152486, Final residual = 6.52383e-05, No Iterations 5
GAMG:  Solving for p, Initial residual = 0.000496174, Final residual = 2.32154e-05, No Iterations 11
GAMG:  Solving for p, Initial residual = 0.000243382, Final residual = 1.20864e-05, No Iterations 16
time step continuity errors : sum local = 9.79814e-10, global = 1.26355e-10
GAMG:  Solving for p, Initial residual = 0.00108476, Final residual = 5.39368e-05, No Iterations 4
GAMG:  Solving for p, Initial residual = 0.000319968, Final residual = 1.53227e-05, No Iterations 16
GAMG:  Solving for p, Initial residual = 0.000233967, Final residual = 9.57161e-07, No Iterations 99
time step continuity errors : sum local = 7.75907e-11, global = -8.39961e-12, cumulative = -5.72718e-10
smoothSolver:  Solving for omega, Initial residual = 0.000281561, Final residual = 1.31075e-09, No Iterations 2
smoothSolver:  Solving for k, Initial residual = 0.00018627, Final residual = 5.67723e-10, No Iterations 2
ExecutionTime = 6041.6 s  ClockTime = 6051 s

Courant Number mean: 0.0646343 max: 4.85481
deltaT = 0.331557
Time = 199.668443s

PIMPLE: Iteration 1
smoothSolver:  Solving for Ux, Initial residual = 0.000146292, Final residual = 5.26758e-08, No Iterations 1
smoothSolver:  Solving for Uy, Initial residual = 0.00133168, Final residual = 5.83512e-07, No Iterations 1
smoothSolver:  Solving for Uz, Initial residual = 0.00303353, Final residual = 9.72788e-07, No Iterations 1
GAMG:  Solving for p, Initial residual = 0.00149525, Final residual = 6.99029e-05, No Iterations 4
GAMG:  Solving for p, Initial residual = 0.000417244, Final residual = 1.95752e-05, No Iterations 9
GAMG:  Solving for p, Initial residual = 0.000190088, Final residual = 9.40756e-06, No Iterations 12
time step continuity errors : sum local = 7.62754e-10, global = 6.23989e-11
GAMG:  Solving for p, Initial residual = 0.00104927, Final residual = 4.97542e-05, No Iterations 4
GAMG:  Solving for p, Initial residual = 0.000291614, Final residual = 1.25222e-05, No Iterations 11
GAMG:  Solving for p, Initial residual = 0.000145633, Final residual = 9.49712e-07, No Iterations 58
time step continuity errors : sum local = 7.70011e-11, global = 8.10812e-12
PIMPLE: Iteration 2
smoothSolver:  Solving for Ux, Initial residual = 4.44643e-05, Final residual = 1.71175e-08, No Iterations 1
smoothSolver:  Solving for Uy, Initial residual = 0.000405573, Final residual = 1.21981e-09, No Iterations 2
smoothSolver:  Solving for Uz, Initial residual = 0.000919117, Final residual = 1.84487e-09, No Iterations 2
GAMG:  Solving for p, Initial residual = 0.00153349, Final residual = 6.57389e-05, No Iterations 5
GAMG:  Solving for p, Initial residual = 0.000498496, Final residual = 2.2923e-05, No Iterations 11
GAMG:  Solving for p, Initial residual = 0.000241758, Final residual = 1.18972e-05, No Iterations 16
time step continuity errors : sum local = 9.64153e-10, global = 1.24076e-10
GAMG:  Solving for p, Initial residual = 0.00109028, Final residual = 5.39501e-05, No Iterations 4
GAMG:  Solving for p, Initial residual = 0.000319926, Final residual = 1.51655e-05, No Iterations 16
GAMG:  Solving for p, Initial residual = 0.000231588, Final residual = 9.95873e-07, No Iterations 97
time step continuity errors : sum local = 8.07019e-11, global = -8.74049e-12, cumulative = -5.81459e-10
smoothSolver:  Solving for omega, Initial residual = 0.000281568, Final residual = 1.31096e-09, No Iterations 2
smoothSolver:  Solving for k, Initial residual = 0.00018593, Final residual = 5.64067e-10, No Iterations 2
ExecutionTime = 6047.7 s  ClockTime = 6057 s

Courant Number mean: 0.0646323 max: 4.85379
deltaT = 0.331557
Time = 200s

PIMPLE: Iteration 1
smoothSolver:  Solving for Ux, Initial residual = 0.000146109, Final residual = 5.2434e-08, No Iterations 1
smoothSolver:  Solving for Uy, Initial residual = 0.0013316, Final residual = 5.82112e-07, No Iterations 1
smoothSolver:  Solving for Uz, Initial residual = 0.00302421, Final residual = 9.69135e-07, No Iterations 1
GAMG:  Solving for p, Initial residual = 0.00150778, Final residual = 7.00185e-05, No Iterations 4
GAMG:  Solving for p, Initial residual = 0.000415472, Final residual = 1.94518e-05, No Iterations 9
GAMG:  Solving for p, Initial residual = 0.00018906, Final residual = 9.34524e-06, No Iterations 12
time step continuity errors : sum local = 7.57449e-10, global = 6.18524e-11
GAMG:  Solving for p, Initial residual = 0.00105807, Final residual = 4.98133e-05, No Iterations 4
GAMG:  Solving for p, Initial residual = 0.000290249, Final residual = 1.24483e-05, No Iterations 11
GAMG:  Solving for p, Initial residual = 0.000144864, Final residual = 9.36176e-07, No Iterations 58
time step continuity errors : sum local = 7.58785e-11, global = 7.99432e-12
PIMPLE: Iteration 2
smoothSolver:  Solving for Ux, Initial residual = 4.44069e-05, Final residual = 1.70349e-08, No Iterations 1
smoothSolver:  Solving for Uy, Initial residual = 0.000405578, Final residual = 1.20932e-09, No Iterations 2
smoothSolver:  Solving for Uz, Initial residual = 0.000916318, Final residual = 1.83726e-09, No Iterations 2
GAMG:  Solving for p, Initial residual = 0.00154394, Final residual = 6.64951e-05, No Iterations 5
GAMG:  Solving for p, Initial residual = 0.000501549, Final residual = 2.27301e-05, No Iterations 11
GAMG:  Solving for p, Initial residual = 0.000240746, Final residual = 1.1773e-05, No Iterations 16
time step continuity errors : sum local = 9.53762e-10, global = 1.22638e-10
GAMG:  Solving for p, Initial residual = 0.00109733, Final residual = 5.41807e-05, No Iterations 4
GAMG:  Solving for p, Initial residual = 0.000320495, Final residual = 1.50877e-05, No Iterations 16
GAMG:  Solving for p, Initial residual = 0.00022993, Final residual = 9.8977e-07, No Iterations 97
time step continuity errors : sum local = 8.01799e-11, global = -8.68034e-12, cumulative = -5.90139e-10
smoothSolver:  Solving for omega, Initial residual = 0.000281587, Final residual = 1.31078e-09, No Iterations 2
smoothSolver:  Solving for k, Initial residual = 0.000185597, Final residual = 5.60151e-10, No Iterations 2
ExecutionTime = 6055.44 s  ClockTime = 6065 s

End

