/*---------------------------------------------------------------------------*\
  =========                 |
  \\      /  F ield         | OpenFOAM: The Open Source CFD Toolbox
   \\    /   O peration     | Website:  https://openfoam.org
    \\  /    A nd           | Version:  13
     \\/     M anipulation  |
\*---------------------------------------------------------------------------*/
Build  : 13-441953dfbb42
Exec   : snappyHexMesh
Date   : Jun 19 2026
Time   : 13:33:28
Host   : "openfoam"
PID    : 1839
I/O    : uncollated
Case   : /home/ubuntu/OpenFOAM/ubuntu-v13/run/sRiverNoTerrain/urans/summer
nProcs : 1
sigFpe : Floating point exception trapping - not supported on this platform
fileModificationChecking : Monitoring run-time modified files using timeStampMaster (fileModificationSkew 10)
allowSystemOperations : Allowing user-supplied system call operations

// * * * * * * * * * * * * * * * * * * * * * * * * * * * * * * * * * * * * * //
Create time

Create mesh for time = 0

Read mesh in = 0.128209 s
Reading "snappyHexMeshDict"


Overall mesh bounding box  : (-1600.36 -1600.36 0) (4000.9 1600.36 160.5)
Relative tolerance         : 1e-06
Absolute matching distance : 0.00645326

Reading refinement surfaces...
Read refinement surfaces in = 0.012819 s

Reading refinement regions...
Refinement level 2 for all cells inside refinementBox
Refinement level 3 for all cells inside pedestrianZone
Read refinement regions in = 2.2e-05 s

Reading features...
Read edgeMesh buildings.eMesh
    points      : 4460
    edges       : 6369
    boundingBox : (-390.82 -398.274 0) (385.976 398.17 32.1)

Refinement level according to distance to "buildings.eMesh" (4460 points, 6369 edges).
    level 1 for all cells within 0 metre.
Read features in = 0.009625 s


Determining initial surface intersections
-----------------------------------------

Edge intersection testing:
    Number of edges             : 123800
    Number of edges to retest   : 123800
    Number of intersected edges : 140
Calculated surface intersections in = 0.061751 s

Initial mesh : cells:40000  faces:123800  points:43911
Cells per refinement level:
    0	40000

Adding patches for surface regions
----------------------------------

Patch Type                Region                        
----- ----                ------                        
buildings:

5     wall                buildings                     

Added patches in = 0.003484 s

Selecting distributor none
Cell selection insidePoints: 1((0.1 0.1 96.3))

Refinement phase
----------------

Found point (0.1 0.1 96.3) in cell 25014 on processor 0

Feature refinement iteration 0
------------------------------

Marked for refinement due to explicit features             : 114 cells.
Determined cells to refine in = 0.229856 s
Selected for feature refinement : 114 cells (out of 40000)
Edge intersection testing:
    Number of edges             : 126521
    Number of edges to retest   : 3570
    Number of intersected edges : 730
Refined mesh in = 0.055714 s
After refinement feature refinement iteration 0 : cells:40798  faces:126521  points:45060
Cells per refinement level:
    0	39886
    1	912

Feature refinement iteration 1
------------------------------

Marked for refinement due to explicit features             : 0 cells.
Determined cells to refine in = 0.232533 s
Selected for feature refinement : 0 cells (out of 40798)
Stopping refining since too few cells selected.


Surface refinement iteration 0
------------------------------

Marked for refinement due to surface intersection          : 565 cells.
Determined cells to refine in = 0.001493 s
Selected for refinement : 608 cells (out of 40798)
Edge intersection testing:
    Number of edges             : 140720
    Number of edges to retest   : 17861
    Number of intersected edges : 3615
Refined mesh in = 0.062745 s
After refinement surface refinement iteration 0 : cells:45054  faces:140720  points:50799
Cells per refinement level:
    0	39822
    1	880
    2	4352

Surface refinement iteration 1
------------------------------

Marked for refinement due to surface intersection          : 3185 cells.
Determined cells to refine in = 0.003603 s
Selected for refinement : 3390 cells (out of 45054)
Edge intersection testing:
    Number of edges             : 217706
    Number of edges to retest   : 94474
    Number of intersected edges : 17044
Refined mesh in = 0.132382 s
After refinement surface refinement iteration 1 : cells:68784  faces:217706  points:80437
Cells per refinement level:
    0	39782
    1	927
    2	3459
    3	24616

Surface refinement iteration 2
------------------------------

Marked for refinement due to surface intersection          : 522 cells.
Determined cells to refine in = 0.009838 s
Selected for refinement : 621 cells (out of 68784)
Edge intersection testing:
    Number of edges             : 230828
    Number of edges to retest   : 40309
    Number of intersected edges : 17387
Refined mesh in = 0.120352 s
After refinement surface refinement iteration 2 : cells:73131  faces:230828  points:84870
Cells per refinement level:
    0	39767
    1	959
    2	3645
    3	28760

Surface refinement iteration 3
------------------------------

Marked for refinement due to surface intersection          : 56 cells.
Determined cells to refine in = 0.009894 s
Selected for refinement : 79 cells (out of 73131)
Edge intersection testing:
    Number of edges             : 232526
    Number of edges to retest   : 6589
    Number of intersected edges : 17397
Refined mesh in = 0.09479 s
After refinement surface refinement iteration 3 : cells:73684  faces:232526  points:85463
Cells per refinement level:
    0	39761
    1	990
    2	3725
    3	29208

Surface refinement iteration 4
------------------------------

Marked for refinement due to surface intersection          : 7 cells.
Determined cells to refine in = 0.009238 s
Selected for refinement : 12 cells (out of 73684)
Edge intersection testing:
    Number of edges             : 232811
    Number of edges to retest   : 808
    Number of intersected edges : 17395
Refined mesh in = 0.0922 s
After refinement surface refinement iteration 4 : cells:73768  faces:232811  points:85582
Cells per refinement level:
    0	39761
    1	985
    2	3758
    3	29264

Surface refinement iteration 5
------------------------------

Marked for refinement due to surface intersection          : 0 cells.
Determined cells to refine in = 0.008624 s
Selected for refinement : 0 cells (out of 73768)
Stopping refining since too few cells selected.


Removing mesh beyond surface intersections
------------------------------------------

Selecting all cells in regions containing any of the points in 1((0.1 0.1 96.3))
Selected: 73130 cells.
Edge intersection testing:
    Number of edges             : 231500
    Number of edges to retest   : 1326
    Number of intersected edges : 17395

Shell refinement iteration 0
----------------------------

Marked for refinement due to distance to explicit features : 0 cells.
Marked for refinement due to refinement shells             : 3458 cells.
Determined cells to refine in = 0.679796 s
Selected for internal refinement : 3458 cells (out of 73130)
Edge intersection testing:
    Number of edges             : 306647
    Number of edges to retest   : 105776
    Number of intersected edges : 17395
Refined mesh in = 0.133708 s
After refinement shell refinement iteration 0 : cells:97336  faces:306647  points:112098
Cells per refinement level:
    0	37552
    1	17672
    2	11362
    3	30750

Shell refinement iteration 1
----------------------------

Marked for refinement due to distance to explicit features : 0 cells.
Marked for refinement due to refinement shells             : 18028 cells.
Determined cells to refine in = 0.01423 s
Selected for internal refinement : 18928 cells (out of 97336)
Edge intersection testing:
    Number of edges             : 711560
    Number of edges to retest   : 483368
    Number of intersected edges : 17395
Refined mesh in = 0.337161 s
After refinement shell refinement iteration 1 : cells:229832  faces:711560  points:252072
Cells per refinement level:
    0	36652
    1	7200
    2	152382
    3	33598

Shell refinement iteration 2
----------------------------

Marked for refinement due to distance to explicit features : 0 cells.
Marked for refinement due to refinement shells             : 5712 cells.
Determined cells to refine in = 0.022278 s
Selected for internal refinement : 5818 cells (out of 229832)
Edge intersection testing:
    Number of edges             : 849776
    Number of edges to retest   : 192203
    Number of intersected edges : 17395
Refined mesh in = 0.359103 s
After refinement shell refinement iteration 2 : cells:270558  faces:849776  points:308914
Cells per refinement level:
    0	36614
    1	6860
    2	152398
    3	74686

Shell refinement iteration 3
----------------------------

Marked for refinement due to distance to explicit features : 0 cells.
Marked for refinement due to refinement shells             : 96 cells.
Determined cells to refine in = 0.021667 s
Selected for internal refinement : 98 cells (out of 270558)
Edge intersection testing:
    Number of edges             : 852131
    Number of edges to retest   : 5334
    Number of intersected edges : 17395
Refined mesh in = 0.338874 s
After refinement shell refinement iteration 3 : cells:271244  faces:852131  points:309898
Cells per refinement level:
    0	36614
    1	6858
    2	152318
    3	75454

Shell refinement iteration 4
----------------------------

Marked for refinement due to distance to explicit features : 0 cells.
Marked for refinement due to refinement shells             : 0 cells.
Determined cells to refine in = 0.021723 s
Selected for internal refinement : 0 cells (out of 271244)
Stopping refining since too few cells selected.


Dangling coarse cells refinement iteration 0
--------------------------------------------

Determined cells to refine in = 0.006313 s
Selected for refinement : 18 cells (out of 271244)
Edge intersection testing:
    Number of edges             : 852401
    Number of edges to retest   : 2178
    Number of intersected edges : 17395
Refined mesh in = 0.326854 s
After refinement coarse cell refinement iteration 0 : cells:271370  faces:852401  points:309934
Cells per refinement level:
    0	36614
    1	6858
    2	152300
    3	75598

Dangling coarse cells refinement iteration 1
--------------------------------------------

Determined cells to refine in = 0.006163 s
Selected for refinement : 2 cells (out of 271370)
Stopping refining since too few cells selected.


Dangling coarse cells refinement iteration 0
--------------------------------------------

Determined cells to refine in = 0.004272 s
Selected for refinement : 0 cells (out of 271370)
Stopping refining since too few cells selected.


Splitting mesh at surface intersections
---------------------------------------

Introducing baffles for 17395 faces that are intersected by the surface.

Edge intersection testing:
    Number of edges             : 868782
    Number of edges to retest   : 83428
    Number of intersected edges : 33776
Created baffles in = 0.321768 s


After introducing baffles : cells:271370  faces:868782  points:309934
Cells per refinement level:
    0	36614
    1	6858
    2	152300
    3	75598

Introducing baffles to block off problem cells
----------------------------------------------

markFacesOnProblemCells : marked 13641 additional internal faces to be converted into baffles.
Analyzed problem cells in = 0.219848 s


Introducing baffles to delete problem cells.

Edge intersection testing:
    Number of edges             : 882423
    Number of edges to retest   : 55954
    Number of intersected edges : 33776
Created baffles in = 0.304461 s


After introducing baffles : cells:271370  faces:882423  points:309934
Cells per refinement level:
    0	36614
    1	6858
    2	152300
    3	75598

Remove unreachable sections of mesh
-----------------------------------

Keeping all cells in regions containing any point in 1((0.1 0.1 96.3))
Selected for keeping : 260556 cells.
Edge intersection testing:
    Number of edges             : 824501
    Number of edges to retest   : 0
    Number of intersected edges : 10548
Split mesh in = 2.4818 s


After subsetting : cells:260556  faces:824501  points:303380
Cells per refinement level:
    0	36614
    1	6858
    2	152300
    3	64784

Handling cells with snap problems
---------------------------------

Introducing baffles for 10548 faces that are intersected by the surface.

Edge intersection testing:
    Number of edges             : 824501
    Number of edges to retest   : 39385
    Number of intersected edges : 10548
Created baffles in = 0.236616 s


After introducing baffles : cells:260556  faces:824501  points:303380
Cells per refinement level:
    0	36614
    1	6858
    2	152300
    3	64784

Introducing baffles to block off problem cells
----------------------------------------------

markFacesOnProblemCells : marked 0 additional internal faces to be converted into baffles.
Analyzed problem cells in = 0.208891 s


Introducing baffles to delete problem cells.

Edge intersection testing:
    Number of edges             : 824501
    Number of edges to retest   : 0
    Number of intersected edges : 10548
Created baffles in = 0.200639 s


After introducing baffles : cells:260556  faces:824501  points:303380
Cells per refinement level:
    0	36614
    1	6858
    2	152300
    3	64784

Remove unreachable sections of mesh
-----------------------------------

Split mesh in = 2.21875 s


After subsetting : cells:260556  faces:824501  points:303380
Cells per refinement level:
    0	36614
    1	6858
    2	152300
    3	64784

Merge free-standing baffles
---------------------------

freeStandingBaffles : detected 228 free-standing baffles out of 238

freeStandingBaffles : detected 0 planar (within 30 degrees) free-standing baffles out of 228

Detected free-standing baffles : 0
Merged free-standing baffles in = 0.063836 s


dupNonManifoldPoints : Found : 260 non-manifold points (out of 303380)
Edge intersection testing:
    Number of edges             : 824501
    Number of edges to retest   : 0
    Number of intersected edges : 10548
Detected unsplittable baffles : 4
Edge intersection testing:
    Number of edges             : 824497
    Number of edges to retest   : 4
    Number of intersected edges : 10544
Merged free-standing baffles in = 2.72171 s.

Merge refined boundary faces
----------------------------

Merging 3 sets of faces.

Edge intersection testing:
    Number of edges             : 824494
    Number of edges to retest   : 40
    Number of intersected edges : 10547

Undo iteration 0
----------------
Checking faces in error :
    non-orthogonality > 65  degrees                        : 35085
    faces with concavity > 80  degrees                     : 0
    faces with skewness > 4   (internal) or 20  (boundary) : 0
    faces with interpolation weights (0..1)  < 0.05        : 0
    faces with volume ratio of neighbour cells < 0.01      : 0
    faces with face twist < 0.02                           : 0
    faces on cells with determinant < 0.001                : 0
Masters that need to be restored:1
Edge intersection testing:
    Number of edges             : 824495
    Number of edges to retest   : 18
    Number of intersected edges : 10546


Undo iteration 1
----------------
Checking faces in error :
    non-orthogonality > 65  degrees                        : 35085
    faces with concavity > 80  degrees                     : 0
    faces with skewness > 4   (internal) or 20  (boundary) : 0
    faces with interpolation weights (0..1)  < 0.05        : 0
    faces with volume ratio of neighbour cells < 0.01      : 0
    faces with face twist < 0.02                           : 0
    faces on cells with determinant < 0.001                : 0
Masters that need to be restored:0

Merging all points on surface that
- are used by only two boundary faces and
- make an angle with a cosine of more than 0.707107.

No straight edges simplified and no points removed ...
Refined mesh : cells:260556  faces:824495  points:303640
Cells per refinement level:
    0	36614
    1	6858
    2	152300
    3	64784
Writing mesh to time constant
Wrote mesh in = 1.52512 s.
Mesh refined in = 13.8385 s.

Morphing phase
--------------


Snapping to features in 10 iterations ...
Constructing mesh displacer ...
Using mesh parameters 
{
    maxNonOrtho     65;
    maxBoundarySkewness 20;
    maxInternalSkewness 4;
    maxConcave      80;
    minVol          -1e+30;
    minTetQuality   -1e+30;
    minTwist        0.02;
    minDeterminant  0.001;
    minFaceWeight   0.05;
    minVolRatio     0.01;
    nSmoothScale    4;
    errorReduction  0.75;
    relaxed
    {
        maxNonOrtho     75;
    }
}


Checking initial mesh ...
Checking faces in error :
    non-orthogonality > 65  degrees                        : 35085
    faces with concavity > 80  degrees                     : 0
    faces with skewness > 4   (internal) or 20  (boundary) : 0
    faces with interpolation weights (0..1)  < 0.05        : 0
    faces with volume ratio of neighbour cells < 0.01      : 0
    faces with face twist < 0.02                           : 0
    faces on cells with determinant < 0.001                : 0
Detected 35085 illegal faces (concave, zero area or negative cell pyramid volume)
Checked initial mesh in = 0.111725 s


Smoothing patch points ...
Smoothing iteration 0
Found 520 non-manifold point(s).

Scaling iteration 0
Moving mesh using displacement scaling : min:1  max:1
Checking faces in error :
    non-orthogonality > 65  degrees                        : 35211
    faces with concavity > 80  degrees                     : 5
    faces with skewness > 4   (internal) or 20  (boundary) : 0
    faces with interpolation weights (0..1)  < 0.05        : 0
    faces with volume ratio of neighbour cells < 0.01      : 0
    faces with face twist < 0.02                           : 0
    faces on cells with determinant < 0.001                : 0

Scaling iteration 1
Moving mesh using displacement scaling : min:0.75  max:1
Checking faces in error :
    non-orthogonality > 65  degrees                        : 35085
    faces with concavity > 80  degrees                     : 0
    faces with skewness > 4   (internal) or 20  (boundary) : 0
    faces with interpolation weights (0..1)  < 0.05        : 0
    faces with volume ratio of neighbour cells < 0.01      : 0
    faces with face twist < 0.02                           : 0
    faces on cells with determinant < 0.001                : 0
Successfully moved mesh

Smoothing iteration 1
Found 0 non-manifold point(s).

Scaling iteration 0
Moving mesh using displacement scaling : min:1  max:1
Checking faces in error :
    non-orthogonality > 65  degrees                        : 35663
    faces with concavity > 80  degrees                     : 22
    faces with skewness > 4   (internal) or 20  (boundary) : 0
    faces with interpolation weights (0..1)  < 0.05        : 0
    faces with volume ratio of neighbour cells < 0.01      : 0
    faces with face twist < 0.02                           : 0
    faces on cells with determinant < 0.001                : 0

Scaling iteration 1
Moving mesh using displacement scaling : min:0.75  max:1
Checking faces in error :
    non-orthogonality > 65  degrees                        : 35545
    faces with concavity > 80  degrees                     : 18
    faces with skewness > 4   (internal) or 20  (boundary) : 0
    faces with interpolation weights (0..1)  < 0.05        : 0
    faces with volume ratio of neighbour cells < 0.01      : 0
    faces with face twist < 0.02                           : 0
    faces on cells with determinant < 0.001                : 0

Scaling iteration 2
Moving mesh using displacement scaling : min:0.5625  max:1
Checking faces in error :
    non-orthogonality > 65  degrees                        : 35443
    faces with concavity > 80  degrees                     : 15
    faces with skewness > 4   (internal) or 20  (boundary) : 0
    faces with interpolation weights (0..1)  < 0.05        : 0
    faces with volume ratio of neighbour cells < 0.01      : 0
    faces with face twist < 0.02                           : 0
    faces on cells with determinant < 0.001                : 0

Scaling iteration 3
Moving mesh using displacement scaling : min:0.421875  max:1
Checking faces in error :
    non-orthogonality > 65  degrees                        : 35335
    faces with concavity > 80  degrees                     : 8
    faces with skewness > 4   (internal) or 20  (boundary) : 0
    faces with interpolation weights (0..1)  < 0.05        : 0
    faces with volume ratio of neighbour cells < 0.01      : 0
    faces with face twist < 0.02                           : 0
    faces on cells with determinant < 0.001                : 0

Scaling iteration 4
Moving mesh using displacement scaling : min:0.316406  max:1
Checking faces in error :
    non-orthogonality > 65  degrees                        : 35270
    faces with concavity > 80  degrees                     : 4
    faces with skewness > 4   (internal) or 20  (boundary) : 0
    faces with interpolation weights (0..1)  < 0.05        : 0
    faces with volume ratio of neighbour cells < 0.01      : 0
    faces with face twist < 0.02                           : 0
    faces on cells with determinant < 0.001                : 0

Scaling iteration 5
Displacement scaling for error reduction set to 0.
Moving mesh using displacement scaling : min:0.237305  max:1
Checking faces in error :
    non-orthogonality > 65  degrees                        : 35221
    faces with concavity > 80  degrees                     : 2
    faces with skewness > 4   (internal) or 20  (boundary) : 0
    faces with interpolation weights (0..1)  < 0.05        : 0
    faces with volume ratio of neighbour cells < 0.01      : 0
    faces with face twist < 0.02                           : 0
    faces on cells with determinant < 0.001                : 0

Scaling iteration 6
Moving mesh using displacement scaling : min:0  max:1
Checking faces in error :
    non-orthogonality > 65  degrees                        : 35085
    faces with concavity > 80  degrees                     : 0
    faces with skewness > 4   (internal) or 20  (boundary) : 0
    faces with interpolation weights (0..1)  < 0.05        : 0
    faces with volume ratio of neighbour cells < 0.01      : 0
    faces with face twist < 0.02                           : 0
    faces on cells with determinant < 0.001                : 0
Successfully moved mesh

Smoothing iteration 2
Found 0 non-manifold point(s).

Scaling iteration 0
Moving mesh using displacement scaling : min:1  max:1
Checking faces in error :
    non-orthogonality > 65  degrees                        : 35732
    faces with concavity > 80  degrees                     : 13
    faces with skewness > 4   (internal) or 20  (boundary) : 0
    faces with interpolation weights (0..1)  < 0.05        : 0
    faces with volume ratio of neighbour cells < 0.01      : 0
    faces with face twist < 0.02                           : 0
    faces on cells with determinant < 0.001                : 0

Scaling iteration 1
Moving mesh using displacement scaling : min:0.75  max:1
Checking faces in error :
    non-orthogonality > 65  degrees                        : 35599
    faces with concavity > 80  degrees                     : 11
    faces with skewness > 4   (internal) or 20  (boundary) : 0
    faces with interpolation weights (0..1)  < 0.05        : 0
    faces with volume ratio of neighbour cells < 0.01      : 0
    faces with face twist < 0.02                           : 0
    faces on cells with determinant < 0.001                : 0

Scaling iteration 2
Moving mesh using displacement scaling : min:0.5625  max:1
Checking faces in error :
    non-orthogonality > 65  degrees                        : 35498
    faces with concavity > 80  degrees                     : 9
    faces with skewness > 4   (internal) or 20  (boundary) : 0
    faces with interpolation weights (0..1)  < 0.05        : 0
    faces with volume ratio of neighbour cells < 0.01      : 0
    faces with face twist < 0.02                           : 0
    faces on cells with determinant < 0.001                : 0

Scaling iteration 3
Moving mesh using displacement scaling : min:0.421875  max:1
Checking faces in error :
    non-orthogonality > 65  degrees                        : 35398
    faces with concavity > 80  degrees                     : 3
    faces with skewness > 4   (internal) or 20  (boundary) : 0
    faces with interpolation weights (0..1)  < 0.05        : 0
    faces with volume ratio of neighbour cells < 0.01      : 0
    faces with face twist < 0.02                           : 0
    faces on cells with determinant < 0.001                : 0

Scaling iteration 4
Moving mesh using displacement scaling : min:0.316406  max:1
Checking faces in error :
    non-orthogonality > 65  degrees                        : 35338
    faces with concavity > 80  degrees                     : 6
    faces with skewness > 4   (internal) or 20  (boundary) : 0
    faces with interpolation weights (0..1)  < 0.05        : 0
    faces with volume ratio of neighbour cells < 0.01      : 0
    faces with face twist < 0.02                           : 0
    faces on cells with determinant < 0.001                : 0

Scaling iteration 5
Displacement scaling for error reduction set to 0.
Moving mesh using displacement scaling : min:0.237305  max:1
Checking faces in error :
    non-orthogonality > 65  degrees                        : 35256
    faces with concavity > 80  degrees                     : 4
    faces with skewness > 4   (internal) or 20  (boundary) : 0
    faces with interpolation weights (0..1)  < 0.05        : 0
    faces with volume ratio of neighbour cells < 0.01      : 0
    faces with face twist < 0.02                           : 0
    faces on cells with determinant < 0.001                : 0

Scaling iteration 6
Moving mesh using displacement scaling : min:0  max:1
Checking faces in error :
    non-orthogonality > 65  degrees                        : 35086
    faces with concavity > 80  degrees                     : 3
    faces with skewness > 4   (internal) or 20  (boundary) : 0
    faces with interpolation weights (0..1)  < 0.05        : 0
    faces with volume ratio of neighbour cells < 0.01      : 0
    faces with face twist < 0.02                           : 0
    faces on cells with determinant < 0.001                : 0

Scaling iteration 7
Moving mesh using displacement scaling : min:0  max:1
Checking faces in error :
    non-orthogonality > 65  degrees                        : 35085
    faces with concavity > 80  degrees                     : 0
    faces with skewness > 4   (internal) or 20  (boundary) : 0
    faces with interpolation weights (0..1)  < 0.05        : 0
    faces with volume ratio of neighbour cells < 0.01      : 0
    faces with face twist < 0.02                           : 0
    faces on cells with determinant < 0.001                : 0
Successfully moved mesh

Patch points smoothed in = 6.8229 s



Morph iteration 0
-----------------
Calculating patchDisplacement as distance to nearest surface point ...
Wanted displacement : average:2.14427 min:0 max:11.5165
Calculated surface displacement in = 0.028778 s


Detecting near surfaces ...
Overriding nearest with intersection of close gaps at 347 out of 12299 points.
Overriding displacement on features :
   implicit features    : true
   explicit features    : true
   multi-patch features : false

Detected 156 baffle edges out of 24044 edges.
Initially selected 6795 points out of 12299 for reverse attraction.
Selected 11114 points out of 12299 for reverse attraction.
Stringing feature edges : changed 1039 points
Stringing feature edges : changed 126 points
Stringing feature edges : changed 37 points
Stringing feature edges : changed 8 points
Stringing feature edges : changed 7 points
Stringing feature edges : changed 0 points
Attraction:
     linear   : max:(7.44883 8.78321 0) avg:(-0.0672458 -0.118887 -0.0110278)
     feature  : max:(-3.99936 17.0179 -0.0960592) avg:(-0.0129716 0.0116269 0.04187)
Feature analysis : total master points:12299 attraction to :
    feature point   : 1083
    feature edge    : 3988
    nearest surface : 0
    rest            : 7228

--> FOAM Warning : Displacement (0.0192709 0.0235562 0.00475512) at mesh point 64085 coord (-23.5556 -316.317 1.00307) points through the surrounding patch faces
Smoothing displacement ...
Iteration 0
Iteration 10
Iteration 20
Iteration 30
Iteration 40
Iteration 50
Iteration 60
Iteration 70
Iteration 80
Iteration 90
Displacement smoothed in = 0.787942 s


Moving mesh ...

Iteration 0
Moving mesh using displacement scaling : min:1  max:1
Checking faces in error :
    non-orthogonality > 65  degrees                        : 35110
    faces with concavity > 80  degrees                     : 4
    faces with skewness > 4   (internal) or 20  (boundary) : 0
    faces with interpolation weights (0..1)  < 0.05        : 0
    faces with volume ratio of neighbour cells < 0.01      : 0
    faces with face twist < 0.02                           : 0
    faces on cells with determinant < 0.001                : 0

Iteration 1
Moving mesh using displacement scaling : min:0.75  max:1
Checking faces in error :
    non-orthogonality > 65  degrees                        : 35106
    faces with concavity > 80  degrees                     : 1
    faces with skewness > 4   (internal) or 20  (boundary) : 0
    faces with interpolation weights (0..1)  < 0.05        : 0
    faces with volume ratio of neighbour cells < 0.01      : 0
    faces with face twist < 0.02                           : 0
    faces on cells with determinant < 0.001                : 0

Iteration 2
Moving mesh using displacement scaling : min:0.5625  max:1
Checking faces in error :
    non-orthogonality > 65  degrees                        : 35100
    faces with concavity > 80  degrees                     : 0
    faces with skewness > 4   (internal) or 20  (boundary) : 0
    faces with interpolation weights (0..1)  < 0.05        : 0
    faces with volume ratio of neighbour cells < 0.01      : 0
    faces with face twist < 0.02                           : 0
    faces on cells with determinant < 0.001                : 0

Iteration 3
Moving mesh using displacement scaling : min:0.421875  max:1
Checking faces in error :
    non-orthogonality > 65  degrees                        : 35098
    faces with concavity > 80  degrees                     : 0
    faces with skewness > 4   (internal) or 20  (boundary) : 0
    faces with interpolation weights (0..1)  < 0.05        : 0
    faces with volume ratio of neighbour cells < 0.01      : 0
    faces with face twist < 0.02                           : 0
    faces on cells with determinant < 0.001                : 0

Iteration 4
Moving mesh using displacement scaling : min:0.316406  max:1
Checking faces in error :
    non-orthogonality > 65  degrees                        : 35094
    faces with concavity > 80  degrees                     : 0
    faces with skewness > 4   (internal) or 20  (boundary) : 0
    faces with interpolation weights (0..1)  < 0.05        : 0
    faces with volume ratio of neighbour cells < 0.01      : 0
    faces with face twist < 0.02                           : 0
    faces on cells with determinant < 0.001                : 0

Iteration 5
Displacement scaling for error reduction set to 0.
Moving mesh using displacement scaling : min:0.237305  max:1
Checking faces in error :
    non-orthogonality > 65  degrees                        : 35092
    faces with concavity > 80  degrees                     : 0
    faces with skewness > 4   (internal) or 20  (boundary) : 0
    faces with interpolation weights (0..1)  < 0.05        : 0
    faces with volume ratio of neighbour cells < 0.01      : 0
    faces with face twist < 0.02                           : 0
    faces on cells with determinant < 0.001                : 0

Iteration 6
Moving mesh using displacement scaling : min:0  max:1
Checking faces in error :
    non-orthogonality > 65  degrees                        : 35096
    faces with concavity > 80  degrees                     : 1
    faces with skewness > 4   (internal) or 20  (boundary) : 0
    faces with interpolation weights (0..1)  < 0.05        : 0
    faces with volume ratio of neighbour cells < 0.01      : 0
    faces with face twist < 0.02                           : 0
    faces on cells with determinant < 0.001                : 0

Iteration 7
Moving mesh using displacement scaling : min:0  max:1
Checking faces in error :
    non-orthogonality > 65  degrees                        : 35086
    faces with concavity > 80  degrees                     : 0
    faces with skewness > 4   (internal) or 20  (boundary) : 0
    faces with interpolation weights (0..1)  < 0.05        : 0
    faces with volume ratio of neighbour cells < 0.01      : 0
    faces with face twist < 0.02                           : 0
    faces on cells with determinant < 0.001                : 0

Iteration 8
Moving mesh using displacement scaling : min:0  max:1
Checking faces in error :
    non-orthogonality > 65  degrees                        : 35086
    faces with concavity > 80  degrees                     : 0
    faces with skewness > 4   (internal) or 20  (boundary) : 0
    faces with interpolation weights (0..1)  < 0.05        : 0
    faces with volume ratio of neighbour cells < 0.01      : 0
    faces with face twist < 0.02                           : 0
    faces on cells with determinant < 0.001                : 0

Iteration 9
Moving mesh using displacement scaling : min:0  max:1
Checking faces in error :
    non-orthogonality > 65  degrees                        : 35085
    faces with concavity > 80  degrees                     : 0
    faces with skewness > 4   (internal) or 20  (boundary) : 0
    faces with interpolation weights (0..1)  < 0.05        : 0
    faces with volume ratio of neighbour cells < 0.01      : 0
    faces with face twist < 0.02                           : 0
    faces on cells with determinant < 0.001                : 0
Successfully moved mesh
Moved mesh in = 4.29481 s



Morph iteration 1
-----------------
Calculating patchDisplacement as distance to nearest surface point ...
Wanted displacement : average:2.07581 min:0 max:11.435
Calculated surface displacement in = 0.02886 s


Detecting near surfaces ...
Overriding nearest with intersection of close gaps at 342 out of 12299 points.
Overriding displacement on features :
   implicit features    : true
   explicit features    : true
   multi-patch features : false

Detected 162 baffle edges out of 24044 edges.
Initially selected 6831 points out of 12299 for reverse attraction.
Selected 11135 points out of 12299 for reverse attraction.
Stringing feature edges : changed 1027 points
Stringing feature edges : changed 120 points
Stringing feature edges : changed 35 points
Stringing feature edges : changed 7 points
Stringing feature edges : changed 6 points
Stringing feature edges : changed 0 points
Attraction:
     linear   : max:(7.39612 8.72106 0) avg:(-0.0647341 -0.115134 -0.0108725)
     feature  : max:(-3.98434 17.0138 -0.0954786) avg:(-0.0116234 0.00756948 0.0409951)
Feature analysis : total master points:12299 attraction to :
    feature point   : 1102
    feature edge    : 3954
    nearest surface : 0
    rest            : 7243

--> FOAM Warning : Displacement (-0.0702803 0.209471 0) at mesh point 73247 coord (-20.472 -309.111 0) points through the surrounding patch faces
Smoothing displacement ...
Iteration 0
Iteration 10
Iteration 20
Iteration 30
Iteration 40
Iteration 50
Iteration 60
Iteration 70
Iteration 80
Iteration 90
Displacement smoothed in = 0.941172 s


Moving mesh ...

Iteration 0
Moving mesh using displacement scaling : min:1  max:1
Checking faces in error :
    non-orthogonality > 65  degrees                        : 35145
    faces with concavity > 80  degrees                     : 7
    faces with skewness > 4   (internal) or 20  (boundary) : 0
    faces with interpolation weights (0..1)  < 0.05        : 0
    faces with volume ratio of neighbour cells < 0.01      : 0
    faces with face twist < 0.02                           : 0
    faces on cells with determinant < 0.001                : 0

Iteration 1
Moving mesh using displacement scaling : min:0.75  max:1
Checking faces in error :
    non-orthogonality > 65  degrees                        : 35134
    faces with concavity > 80  degrees                     : 7
    faces with skewness > 4   (internal) or 20  (boundary) : 0
    faces with interpolation weights (0..1)  < 0.05        : 0
    faces with volume ratio of neighbour cells < 0.01      : 0
    faces with face twist < 0.02                           : 0
    faces on cells with determinant < 0.001                : 0

Iteration 2
Moving mesh using displacement scaling : min:0.5625  max:1
Checking faces in error :
    non-orthogonality > 65  degrees                        : 35130
    faces with concavity > 80  degrees                     : 3
    faces with skewness > 4   (internal) or 20  (boundary) : 0
    faces with interpolation weights (0..1)  < 0.05        : 0
    faces with volume ratio of neighbour cells < 0.01      : 0
    faces with face twist < 0.02                           : 0
    faces on cells with determinant < 0.001                : 0

Iteration 3
Moving mesh using displacement scaling : min:0.421875  max:1
Checking faces in error :
    non-orthogonality > 65  degrees                        : 35116
    faces with concavity > 80  degrees                     : 3
    faces with skewness > 4   (internal) or 20  (boundary) : 0
    faces with interpolation weights (0..1)  < 0.05        : 0
    faces with volume ratio of neighbour cells < 0.01      : 0
    faces with face twist < 0.02                           : 0
    faces on cells with determinant < 0.001                : 0

Iteration 4
Moving mesh using displacement scaling : min:0.316406  max:1
Checking faces in error :
    non-orthogonality > 65  degrees                        : 35120
    faces with concavity > 80  degrees                     : 4
    faces with skewness > 4   (internal) or 20  (boundary) : 0
    faces with interpolation weights (0..1)  < 0.05        : 0
    faces with volume ratio of neighbour cells < 0.01      : 0
    faces with face twist < 0.02                           : 0
    faces on cells with determinant < 0.001                : 0

Iteration 5
Displacement scaling for error reduction set to 0.
Moving mesh using displacement scaling : min:0.237305  max:1
Checking faces in error :
    non-orthogonality > 65  degrees                        : 35112
    faces with concavity > 80  degrees                     : 5
    faces with skewness > 4   (internal) or 20  (boundary) : 0
    faces with interpolation weights (0..1)  < 0.05        : 0
    faces with volume ratio of neighbour cells < 0.01      : 0
    faces with face twist < 0.02                           : 0
    faces on cells with determinant < 0.001                : 0

Iteration 6
Moving mesh using displacement scaling : min:0  max:1
Checking faces in error :
    non-orthogonality > 65  degrees                        : 35099
    faces with concavity > 80  degrees                     : 3
    faces with skewness > 4   (internal) or 20  (boundary) : 0
    faces with interpolation weights (0..1)  < 0.05        : 0
    faces with volume ratio of neighbour cells < 0.01      : 0
    faces with face twist < 0.02                           : 0
    faces on cells with determinant < 0.001                : 0

Iteration 7
Moving mesh using displacement scaling : min:0  max:1
Checking faces in error :
    non-orthogonality > 65  degrees                        : 35085
    faces with concavity > 80  degrees                     : 0
    faces with skewness > 4   (internal) or 20  (boundary) : 0
    faces with interpolation weights (0..1)  < 0.05        : 0
    faces with volume ratio of neighbour cells < 0.01      : 0
    faces with face twist < 0.02                           : 0
    faces on cells with determinant < 0.001                : 0
Successfully moved mesh
Moved mesh in = 3.32485 s



Morph iteration 2
-----------------
Calculating patchDisplacement as distance to nearest surface point ...
Wanted displacement : average:1.93243 min:0 max:11.4689
Calculated surface displacement in = 0.027966 s


Detecting near surfaces ...
Overriding nearest with intersection of close gaps at 354 out of 12299 points.
Overriding displacement on features :
   implicit features    : true
   explicit features    : true
   multi-patch features : false

Detected 177 baffle edges out of 24044 edges.
Initially selected 6851 points out of 12299 for reverse attraction.
Selected 11136 points out of 12299 for reverse attraction.
Stringing feature edges : changed 1026 points
Stringing feature edges : changed 114 points
Stringing feature edges : changed 36 points
Stringing feature edges : changed 7 points
Stringing feature edges : changed 4 points
Stringing feature edges : changed 0 points
Attraction:
     linear   : max:(-11.4337 -0.89802 8.88178e-16) avg:(-0.0599714 -0.106118 -0.00978214)
     feature  : max:(-3.94393 16.9871 -0.0939736) avg:(-0.00687291 0.0107069 0.0452011)
Feature analysis : total master points:12299 attraction to :
    feature point   : 1107
    feature edge    : 3956
    nearest surface : 0
    rest            : 7236

--> FOAM Warning : Displacement (-0.105385 0.246361 0) at mesh point 73247 coord (-20.5422 -308.901 0) points through the surrounding patch faces
Smoothing displacement ...
Iteration 0
Iteration 10
Iteration 20
Iteration 30
Iteration 40
Iteration 50
Iteration 60
Iteration 70
Iteration 80
Iteration 90
Displacement smoothed in = 0.843899 s


Moving mesh ...

Iteration 0
Moving mesh using displacement scaling : min:1  max:1
Checking faces in error :
    non-orthogonality > 65  degrees                        : 35205
    faces with concavity > 80  degrees                     : 22
    faces with skewness > 4   (internal) or 20  (boundary) : 0
    faces with interpolation weights (0..1)  < 0.05        : 0
    faces with volume ratio of neighbour cells < 0.01      : 0
    faces with face twist < 0.02                           : 10
    faces on cells with determinant < 0.001                : 0

Iteration 1
Moving mesh using displacement scaling : min:0.75  max:1
Checking faces in error :
    non-orthogonality > 65  degrees                        : 35181
    faces with concavity > 80  degrees                     : 22
    faces with skewness > 4   (internal) or 20  (boundary) : 0
    faces with interpolation weights (0..1)  < 0.05        : 0
    faces with volume ratio of neighbour cells < 0.01      : 0
    faces with face twist < 0.02                           : 3
    faces on cells with determinant < 0.001                : 0

Iteration 2
Moving mesh using displacement scaling : min:0.5625  max:1
Checking faces in error :
    non-orthogonality > 65  degrees                        : 35169
    faces with concavity > 80  degrees                     : 9
    faces with skewness > 4   (internal) or 20  (boundary) : 0
    faces with interpolation weights (0..1)  < 0.05        : 0
    faces with volume ratio of neighbour cells < 0.01      : 0
    faces with face twist < 0.02                           : 0
    faces on cells with determinant < 0.001                : 0

Iteration 3
Moving mesh using displacement scaling : min:0.421875  max:1
Checking faces in error :
    non-orthogonality > 65  degrees                        : 35159
    faces with concavity > 80  degrees                     : 8
    faces with skewness > 4   (internal) or 20  (boundary) : 0
    faces with interpolation weights (0..1)  < 0.05        : 0
    faces with volume ratio of neighbour cells < 0.01      : 0
    faces with face twist < 0.02                           : 0
    faces on cells with determinant < 0.001                : 0

Iteration 4
Moving mesh using displacement scaling : min:0.316406  max:1
Checking faces in error :
    non-orthogonality > 65  degrees                        : 35146
    faces with concavity > 80  degrees                     : 5
    faces with skewness > 4   (internal) or 20  (boundary) : 0
    faces with interpolation weights (0..1)  < 0.05        : 0
    faces with volume ratio of neighbour cells < 0.01      : 0
    faces with face twist < 0.02                           : 0
    faces on cells with determinant < 0.001                : 0

Iteration 5
Displacement scaling for error reduction set to 0.
Moving mesh using displacement scaling : min:0.237305  max:1
Checking faces in error :
    non-orthogonality > 65  degrees                        : 35132
    faces with concavity > 80  degrees                     : 8
    faces with skewness > 4   (internal) or 20  (boundary) : 0
    faces with interpolation weights (0..1)  < 0.05        : 0
    faces with volume ratio of neighbour cells < 0.01      : 0
    faces with face twist < 0.02                           : 0
    faces on cells with determinant < 0.001                : 0

Iteration 6
Moving mesh using displacement scaling : min:0  max:1
Checking faces in error :
    non-orthogonality > 65  degrees                        : 35106
    faces with concavity > 80  degrees                     : 8
    faces with skewness > 4   (internal) or 20  (boundary) : 0
    faces with interpolation weights (0..1)  < 0.05        : 0
    faces with volume ratio of neighbour cells < 0.01      : 0
    faces with face twist < 0.02                           : 0
    faces on cells with determinant < 0.001                : 0

Iteration 7
Moving mesh using displacement scaling : min:0  max:1
Checking faces in error :
    non-orthogonality > 65  degrees                        : 35086
    faces with concavity > 80  degrees                     : 1
    faces with skewness > 4   (internal) or 20  (boundary) : 0
    faces with interpolation weights (0..1)  < 0.05        : 0
    faces with volume ratio of neighbour cells < 0.01      : 0
    faces with face twist < 0.02                           : 0
    faces on cells with determinant < 0.001                : 0

Iteration 8
Moving mesh using displacement scaling : min:0  max:1
Checking faces in error :
    non-orthogonality > 65  degrees                        : 35086
    faces with concavity > 80  degrees                     : 0
    faces with skewness > 4   (internal) or 20  (boundary) : 0
    faces with interpolation weights (0..1)  < 0.05        : 0
    faces with volume ratio of neighbour cells < 0.01      : 0
    faces with face twist < 0.02                           : 0
    faces on cells with determinant < 0.001                : 0

Iteration 9
Moving mesh using displacement scaling : min:0  max:1
Checking faces in error :
    non-orthogonality > 65  degrees                        : 35085
    faces with concavity > 80  degrees                     : 0
    faces with skewness > 4   (internal) or 20  (boundary) : 0
    faces with interpolation weights (0..1)  < 0.05        : 0
    faces with volume ratio of neighbour cells < 0.01      : 0
    faces with face twist < 0.02                           : 0
    faces on cells with determinant < 0.001                : 0
Successfully moved mesh
Moved mesh in = 4.34949 s



Morph iteration 3
-----------------
Calculating patchDisplacement as distance to nearest surface point ...
Wanted displacement : average:1.76393 min:0 max:11.502
Calculated surface displacement in = 0.027065 s


Detecting near surfaces ...
Overriding nearest with intersection of close gaps at 379 out of 12299 points.
Overriding displacement on features :
   implicit features    : true
   explicit features    : true
   multi-patch features : false

Detected 196 baffle edges out of 24044 edges.
Initially selected 6865 points out of 12299 for reverse attraction.
Selected 11147 points out of 12299 for reverse attraction.
Stringing feature edges : changed 1029 points
Stringing feature edges : changed 103 points
Stringing feature edges : changed 33 points
Stringing feature edges : changed 6 points
Stringing feature edges : changed 8 points
Stringing feature edges : changed 0 points
Attraction:
     linear   : max:(-11.4667 -0.900612 -8.88178e-16) avg:(-0.0601392 -0.10244 -0.00890448)
     feature  : max:(-3.91262 16.9535 -0.0928546) avg:(-0.00222415 0.00653047 0.0524588)
Feature analysis : total master points:12299 attraction to :
    feature point   : 1106
    feature edge    : 3953
    nearest surface : 0
    rest            : 7240

--> FOAM Warning : Displacement (-0.133216 0.221651 0) at mesh point 73247 coord (-20.6476 -308.655 0) points through the surrounding patch faces
Smoothing displacement ...
Iteration 0
Iteration 10
Iteration 20
Iteration 30
Iteration 40
Iteration 50
Iteration 60
Iteration 70
Iteration 80
Iteration 90
Displacement smoothed in = 0.796727 s


Moving mesh ...

Iteration 0
Moving mesh using displacement scaling : min:1  max:1
Checking faces in error :
    non-orthogonality > 65  degrees                        : 35294
    faces with concavity > 80  degrees                     : 38
    faces with skewness > 4   (internal) or 20  (boundary) : 0
    faces with interpolation weights (0..1)  < 0.05        : 0
    faces with volume ratio of neighbour cells < 0.01      : 0
    faces with face twist < 0.02                           : 50
    faces on cells with determinant < 0.001                : 0

Iteration 1
Moving mesh using displacement scaling : min:0.75  max:1
Checking faces in error :
    non-orthogonality > 65  degrees                        : 35259
    faces with concavity > 80  degrees                     : 27
    faces with skewness > 4   (internal) or 20  (boundary) : 0
    faces with interpolation weights (0..1)  < 0.05        : 0
    faces with volume ratio of neighbour cells < 0.01      : 0
    faces with face twist < 0.02                           : 23
    faces on cells with determinant < 0.001                : 0

Iteration 2
Moving mesh using displacement scaling : min:0.5625  max:1
Checking faces in error :
    non-orthogonality > 65  degrees                        : 35218
    faces with concavity > 80  degrees                     : 27
    faces with skewness > 4   (internal) or 20  (boundary) : 0
    faces with interpolation weights (0..1)  < 0.05        : 0
    faces with volume ratio of neighbour cells < 0.01      : 0
    faces with face twist < 0.02                           : 11
    faces on cells with determinant < 0.001                : 0

Iteration 3
Moving mesh using displacement scaling : min:0.421875  max:1
Checking faces in error :
    non-orthogonality > 65  degrees                        : 35194
    faces with concavity > 80  degrees                     : 23
    faces with skewness > 4   (internal) or 20  (boundary) : 0
    faces with interpolation weights (0..1)  < 0.05        : 0
    faces with volume ratio of neighbour cells < 0.01      : 0
    faces with face twist < 0.02                           : 5
    faces on cells with determinant < 0.001                : 0

Iteration 4
Moving mesh using displacement scaling : min:0.316406  max:1
Checking faces in error :
    non-orthogonality > 65  degrees                        : 35182
    faces with concavity > 80  degrees                     : 15
    faces with skewness > 4   (internal) or 20  (boundary) : 0
    faces with interpolation weights (0..1)  < 0.05        : 0
    faces with volume ratio of neighbour cells < 0.01      : 0
    faces with face twist < 0.02                           : 5
    faces on cells with determinant < 0.001                : 0

Iteration 5
Displacement scaling for error reduction set to 0.
Moving mesh using displacement scaling : min:0.237305  max:1
Checking faces in error :
    non-orthogonality > 65  degrees                        : 35167
    faces with concavity > 80  degrees                     : 15
    faces with skewness > 4   (internal) or 20  (boundary) : 0
    faces with interpolation weights (0..1)  < 0.05        : 0
    faces with volume ratio of neighbour cells < 0.01      : 0
    faces with face twist < 0.02                           : 4
    faces on cells with determinant < 0.001                : 0

Iteration 6
Moving mesh using displacement scaling : min:0  max:1
Checking faces in error :
    non-orthogonality > 65  degrees                        : 35111
    faces with concavity > 80  degrees                     : 12
    faces with skewness > 4   (internal) or 20  (boundary) : 0
    faces with interpolation weights (0..1)  < 0.05        : 0
    faces with volume ratio of neighbour cells < 0.01      : 0
    faces with face twist < 0.02                           : 0
    faces on cells with determinant < 0.001                : 0

Iteration 7
Moving mesh using displacement scaling : min:0  max:1
Checking faces in error :
    non-orthogonality > 65  degrees                        : 35088
    faces with concavity > 80  degrees                     : 3
    faces with skewness > 4   (internal) or 20  (boundary) : 0
    faces with interpolation weights (0..1)  < 0.05        : 0
    faces with volume ratio of neighbour cells < 0.01      : 0
    faces with face twist < 0.02                           : 0
    faces on cells with determinant < 0.001                : 0

Iteration 8
Moving mesh using displacement scaling : min:0  max:1
Checking faces in error :
    non-orthogonality > 65  degrees                        : 35085
    faces with concavity > 80  degrees                     : 0
    faces with skewness > 4   (internal) or 20  (boundary) : 0
    faces with interpolation weights (0..1)  < 0.05        : 0
    faces with volume ratio of neighbour cells < 0.01      : 0
    faces with face twist < 0.02                           : 0
    faces on cells with determinant < 0.001                : 0
Successfully moved mesh
Moved mesh in = 3.83382 s



Morph iteration 4
-----------------
Calculating patchDisplacement as distance to nearest surface point ...
Wanted displacement : average:1.57024 min:0 max:11.4832
Calculated surface displacement in = 0.026177 s


Detecting near surfaces ...
Overriding nearest with intersection of close gaps at 369 out of 12299 points.
Overriding displacement on features :
   implicit features    : true
   explicit features    : true
   multi-patch features : false

Detected 268 baffle edges out of 24044 edges.
Initially selected 6934 points out of 12299 for reverse attraction.
Selected 11218 points out of 12299 for reverse attraction.
Stringing feature edges : changed 1065 points
Stringing feature edges : changed 123 points
Stringing feature edges : changed 42 points
Stringing feature edges : changed 10 points
Stringing feature edges : changed 3 points
Stringing feature edges : changed 0 points
Attraction:
     linear   : max:(-11.448 -0.899143 8.88178e-16) avg:(-0.0593777 -0.0935034 -0.00778396)
     feature  : max:(15.5897 9.75501 -0.381186) avg:(-0.00755418 -0.00453055 0.0579871)
Feature analysis : total master points:12299 attraction to :
    feature point   : 1111
    feature edge    : 4064
    nearest surface : 0
    rest            : 7124

--> FOAM Warning : Displacement (-0.167419 0.208724 0) at mesh point 73247 coord (-20.7193 -308.536 0) points through the surrounding patch faces
Smoothing displacement ...
Iteration 0
Iteration 10
Iteration 20
Iteration 30
Iteration 40
Iteration 50
Iteration 60
Iteration 70
Iteration 80
Iteration 90
Displacement smoothed in = 0.79987 s


Moving mesh ...

Iteration 0
Moving mesh using displacement scaling : min:1  max:1
Checking faces in error :
    non-orthogonality > 65  degrees                        : 35536
    faces with concavity > 80  degrees                     : 61
    faces with skewness > 4   (internal) or 20  (boundary) : 0
    faces with interpolation weights (0..1)  < 0.05        : 1
    faces with volume ratio of neighbour cells < 0.01      : 0
    faces with face twist < 0.02                           : 229
    faces on cells with determinant < 0.001                : 2

Iteration 1
Moving mesh using displacement scaling : min:0.75  max:1
Checking faces in error :
    non-orthogonality > 65  degrees                        : 35405
    faces with concavity > 80  degrees                     : 48
    faces with skewness > 4   (internal) or 20  (boundary) : 0
    faces with interpolation weights (0..1)  < 0.05        : 0
    faces with volume ratio of neighbour cells < 0.01      : 0
    faces with face twist < 0.02                           : 142
    faces on cells with determinant < 0.001                : 0

Iteration 2
Moving mesh using displacement scaling : min:0.5625  max:1
Checking faces in error :
    non-orthogonality > 65  degrees                        : 35326
    faces with concavity > 80  degrees                     : 43
    faces with skewness > 4   (internal) or 20  (boundary) : 0
    faces with interpolation weights (0..1)  < 0.05        : 0
    faces with volume ratio of neighbour cells < 0.01      : 0
    faces with face twist < 0.02                           : 80
    faces on cells with determinant < 0.001                : 0

Iteration 3
Moving mesh using displacement scaling : min:0.421875  max:1
Checking faces in error :
    non-orthogonality > 65  degrees                        : 35275
    faces with concavity > 80  degrees                     : 39
    faces with skewness > 4   (internal) or 20  (boundary) : 0
    faces with interpolation weights (0..1)  < 0.05        : 0
    faces with volume ratio of neighbour cells < 0.01      : 0
    faces with face twist < 0.02                           : 48
    faces on cells with determinant < 0.001                : 0

Iteration 4
Moving mesh using displacement scaling : min:0.316406  max:1
Checking faces in error :
    non-orthogonality > 65  degrees                        : 35246
    faces with concavity > 80  degrees                     : 29
    faces with skewness > 4   (internal) or 20  (boundary) : 0
    faces with interpolation weights (0..1)  < 0.05        : 0
    faces with volume ratio of neighbour cells < 0.01      : 0
    faces with face twist < 0.02                           : 30
    faces on cells with determinant < 0.001                : 0

Iteration 5
Displacement scaling for error reduction set to 0.
Moving mesh using displacement scaling : min:0.237305  max:1
Checking faces in error :
    non-orthogonality > 65  degrees                        : 35223
    faces with concavity > 80  degrees                     : 29
    faces with skewness > 4   (internal) or 20  (boundary) : 0
    faces with interpolation weights (0..1)  < 0.05        : 0
    faces with volume ratio of neighbour cells < 0.01      : 0
    faces with face twist < 0.02                           : 27
    faces on cells with determinant < 0.001                : 0

Iteration 6
Moving mesh using displacement scaling : min:0  max:1
Checking faces in error :
    non-orthogonality > 65  degrees                        : 35116
    faces with concavity > 80  degrees                     : 12
    faces with skewness > 4   (internal) or 20  (boundary) : 0
    faces with interpolation weights (0..1)  < 0.05        : 0
    faces with volume ratio of neighbour cells < 0.01      : 0
    faces with face twist < 0.02                           : 7
    faces on cells with determinant < 0.001                : 0

Iteration 7
Moving mesh using displacement scaling : min:0  max:1
Checking faces in error :
    non-orthogonality > 65  degrees                        : 35085
    faces with concavity > 80  degrees                     : 1
    faces with skewness > 4   (internal) or 20  (boundary) : 0
    faces with interpolation weights (0..1)  < 0.05        : 0
    faces with volume ratio of neighbour cells < 0.01      : 0
    faces with face twist < 0.02                           : 0
    faces on cells with determinant < 0.001                : 0

Iteration 8
Moving mesh using displacement scaling : min:0  max:1
Checking faces in error :
    non-orthogonality > 65  degrees                        : 35085
    faces with concavity > 80  degrees                     : 2
    faces with skewness > 4   (internal) or 20  (boundary) : 0
    faces with interpolation weights (0..1)  < 0.05        : 0
    faces with volume ratio of neighbour cells < 0.01      : 0
    faces with face twist < 0.02                           : 2
    faces on cells with determinant < 0.001                : 0

Iteration 9
Moving mesh using displacement scaling : min:0  max:1
Checking faces in error :
    non-orthogonality > 65  degrees                        : 35085
    faces with concavity > 80  degrees                     : 1
    faces with skewness > 4   (internal) or 20  (boundary) : 0
    faces with interpolation weights (0..1)  < 0.05        : 0
    faces with volume ratio of neighbour cells < 0.01      : 0
    faces with face twist < 0.02                           : 0
    faces on cells with determinant < 0.001                : 0
Moved mesh in = 4.74277 s


--> FOAM Warning : 
    From function void Foam::snappySnapDriver::doSnap(const Foam::dictionary&, const Foam::dictionary&, Foam::scalar, Foam::scalar, const Foam::snapParameters&)
    in file snappyHexMeshDriver/snappySnapDriver.C at line 2729
    Did not successfully snap mesh. Continuing to snap to resolve easy
    surfaces but the resulting mesh will not satisfy your quality constraints


Morph iteration 5
-----------------
Calculating patchDisplacement as distance to nearest surface point ...
Wanted displacement : average:1.40459 min:0 max:11.4754
Calculated surface displacement in = 0.025365 s


Detecting near surfaces ...
Overriding nearest with intersection of close gaps at 370 out of 12299 points.
Overriding displacement on features :
   implicit features    : true
   explicit features    : true
   multi-patch features : false

Detected 358 baffle edges out of 24044 edges.
Initially selected 6960 points out of 12299 for reverse attraction.
Selected 11238 points out of 12299 for reverse attraction.
Stringing feature edges : changed 1079 points
Stringing feature edges : changed 132 points
Stringing feature edges : changed 49 points
Stringing feature edges : changed 6 points
Stringing feature edges : changed 3 points
Stringing feature edges : changed 0 points
Attraction:
     linear   : max:(-11.4402 -0.898535 0) avg:(-0.0610598 -0.0796512 -0.00584413)
     feature  : max:(1.8104 -17.1582 -6.16964) avg:(-0.00733271 -0.00744575 0.0575388)
Feature analysis : total master points:12299 attraction to :
    feature point   : 1078
    feature edge    : 4137
    nearest surface : 0
    rest            : 7084

--> FOAM Warning : Displacement (-0.178997 0.14626 0) at mesh point 73247 coord (-20.8421 -308.382 0) points through the surrounding patch faces
Smoothing displacement ...
Iteration 0
Iteration 10
Iteration 20
Iteration 30
Iteration 40
Iteration 50
Iteration 60
Iteration 70
Iteration 80
Iteration 90
Displacement smoothed in = 0.792208 s


Moving mesh ...

Iteration 0
Moving mesh using displacement scaling : min:1  max:1
Checking faces in error :
    non-orthogonality > 65  degrees                        : 35971
    faces with concavity > 80  degrees                     : 84
    faces with skewness > 4   (internal) or 20  (boundary) : 0
    faces with interpolation weights (0..1)  < 0.05        : 0
    faces with volume ratio of neighbour cells < 0.01      : 3
    faces with face twist < 0.02                           : 583
    faces on cells with determinant < 0.001                : 7

Iteration 1
Moving mesh using displacement scaling : min:0.75  max:1
Checking faces in error :
    non-orthogonality > 65  degrees                        : 35676
    faces with concavity > 80  degrees                     : 64
    faces with skewness > 4   (internal) or 20  (boundary) : 1
    faces with interpolation weights (0..1)  < 0.05        : 0
    faces with volume ratio of neighbour cells < 0.01      : 0
    faces with face twist < 0.02                           : 335
    faces on cells with determinant < 0.001                : 2

Iteration 2
Moving mesh using displacement scaling : min:0.5625  max:1
Checking faces in error :
    non-orthogonality > 65  degrees                        : 35492
    faces with concavity > 80  degrees                     : 58
    faces with skewness > 4   (internal) or 20  (boundary) : 0
    faces with interpolation weights (0..1)  < 0.05        : 0
    faces with volume ratio of neighbour cells < 0.01      : 0
    faces with face twist < 0.02                           : 207
    faces on cells with determinant < 0.001                : 0

Iteration 3
Moving mesh using displacement scaling : min:0.421875  max:1
Checking faces in error :
    non-orthogonality > 65  degrees                        : 35401
    faces with concavity > 80  degrees                     : 48
    faces with skewness > 4   (internal) or 20  (boundary) : 0
    faces with interpolation weights (0..1)  < 0.05        : 0
    faces with volume ratio of neighbour cells < 0.01      : 0
    faces with face twist < 0.02                           : 138
    faces on cells with determinant < 0.001                : 0

Iteration 4
Moving mesh using displacement scaling : min:0.316406  max:1
Checking faces in error :
    non-orthogonality > 65  degrees                        : 35337
    faces with concavity > 80  degrees                     : 44
    faces with skewness > 4   (internal) or 20  (boundary) : 0
    faces with interpolation weights (0..1)  < 0.05        : 0
    faces with volume ratio of neighbour cells < 0.01      : 0
    faces with face twist < 0.02                           : 83
    faces on cells with determinant < 0.001                : 0

Iteration 5
Displacement scaling for error reduction set to 0.
Moving mesh using displacement scaling : min:0.237305  max:1
Checking faces in error :
    non-orthogonality > 65  degrees                        : 35293
    faces with concavity > 80  degrees                     : 36
    faces with skewness > 4   (internal) or 20  (boundary) : 0
    faces with interpolation weights (0..1)  < 0.05        : 0
    faces with volume ratio of neighbour cells < 0.01      : 0
    faces with face twist < 0.02                           : 56
    faces on cells with determinant < 0.001                : 0

Iteration 6
Moving mesh using displacement scaling : min:0  max:1
Checking faces in error :
    non-orthogonality > 65  degrees                        : 35131
    faces with concavity > 80  degrees                     : 18
    faces with skewness > 4   (internal) or 20  (boundary) : 0
    faces with interpolation weights (0..1)  < 0.05        : 0
    faces with volume ratio of neighbour cells < 0.01      : 0
    faces with face twist < 0.02                           : 15
    faces on cells with determinant < 0.001                : 0

Iteration 7
Moving mesh using displacement scaling : min:0  max:1
Checking faces in error :
    non-orthogonality > 65  degrees                        : 35091
    faces with concavity > 80  degrees                     : 4
    faces with skewness > 4   (internal) or 20  (boundary) : 0
    faces with interpolation weights (0..1)  < 0.05        : 0
    faces with volume ratio of neighbour cells < 0.01      : 0
    faces with face twist < 0.02                           : 0
    faces on cells with determinant < 0.001                : 0

Iteration 8
Moving mesh using displacement scaling : min:0  max:1
Checking faces in error :
    non-orthogonality > 65  degrees                        : 35086
    faces with concavity > 80  degrees                     : 0
    faces with skewness > 4   (internal) or 20  (boundary) : 0
    faces with interpolation weights (0..1)  < 0.05        : 0
    faces with volume ratio of neighbour cells < 0.01      : 0
    faces with face twist < 0.02                           : 0
    faces on cells with determinant < 0.001                : 0

Iteration 9
Moving mesh using displacement scaling : min:0  max:1
Checking faces in error :
    non-orthogonality > 65  degrees                        : 35086
    faces with concavity > 80  degrees                     : 1
    faces with skewness > 4   (internal) or 20  (boundary) : 0
    faces with interpolation weights (0..1)  < 0.05        : 0
    faces with volume ratio of neighbour cells < 0.01      : 0
    faces with face twist < 0.02                           : 0
    faces on cells with determinant < 0.001                : 0
Moved mesh in = 4.73873 s


--> FOAM Warning : 
    From function void Foam::snappySnapDriver::doSnap(const Foam::dictionary&, const Foam::dictionary&, Foam::scalar, Foam::scalar, const Foam::snapParameters&)
    in file snappyHexMeshDriver/snappySnapDriver.C at line 2729
    Did not successfully snap mesh. Continuing to snap to resolve easy
    surfaces but the resulting mesh will not satisfy your quality constraints


Morph iteration 6
-----------------
Calculating patchDisplacement as distance to nearest surface point ...
Wanted displacement : average:1.27674 min:0 max:11.458
Calculated surface displacement in = 0.024683 s


Detecting near surfaces ...
Overriding nearest with intersection of close gaps at 380 out of 12299 points.
Overriding displacement on features :
   implicit features    : true
   explicit features    : true
   multi-patch features : false

Detected 470 baffle edges out of 24044 edges.
Initially selected 6958 points out of 12299 for reverse attraction.
Selected 11217 points out of 12299 for reverse attraction.
Stringing feature edges : changed 1113 points
Stringing feature edges : changed 127 points
Stringing feature edges : changed 39 points
Stringing feature edges : changed 11 points
Stringing feature edges : changed 1 points
Stringing feature edges : changed 0 points
Attraction:
     linear   : max:(-11.4228 -0.89717 0) avg:(-0.0634282 -0.0689055 -0.00525474)
     feature  : max:(-3.8828 16.9088 -0.0918363) avg:(0.00253361 -0.00418542 0.0593461)
Feature analysis : total master points:12299 attraction to :
    feature point   : 1063
    feature edge    : 4182
    nearest surface : 0
    rest            : 7054

--> FOAM Warning : Displacement (-0.183976 0.0988825 0) at mesh point 73247 coord (-20.9473 -308.296 0) points through the surrounding patch faces
Smoothing displacement ...
Iteration 0
Iteration 10
Iteration 20
Iteration 30
Iteration 40
Iteration 50
Iteration 60
Iteration 70
Iteration 80
Iteration 90
Displacement smoothed in = 0.804398 s


Moving mesh ...

Iteration 0
Moving mesh using displacement scaling : min:1  max:1
Checking faces in error :
    non-orthogonality > 65  degrees                        : 36585
    faces with concavity > 80  degrees                     : 98
    faces with skewness > 4   (internal) or 20  (boundary) : 3
    faces with interpolation weights (0..1)  < 0.05        : 6
    faces with volume ratio of neighbour cells < 0.01      : 1
    faces with face twist < 0.02                           : 1120
    faces on cells with determinant < 0.001                : 22

Iteration 1
Moving mesh using displacement scaling : min:0.75  max:1
Checking faces in error :
    non-orthogonality > 65  degrees                        : 36101
    faces with concavity > 80  degrees                     : 83
    faces with skewness > 4   (internal) or 20  (boundary) : 2
    faces with interpolation weights (0..1)  < 0.05        : 4
    faces with volume ratio of neighbour cells < 0.01      : 2
    faces with face twist < 0.02                           : 700
    faces on cells with determinant < 0.001                : 19

Iteration 2
Moving mesh using displacement scaling : min:0.5625  max:1
Checking faces in error :
    non-orthogonality > 65  degrees                        : 35803
    faces with concavity > 80  degrees                     : 70
    faces with skewness > 4   (internal) or 20  (boundary) : 2
    faces with interpolation weights (0..1)  < 0.05        : 0
    faces with volume ratio of neighbour cells < 0.01      : 0
    faces with face twist < 0.02                           : 469
    faces on cells with determinant < 0.001                : 9

Iteration 3
Moving mesh using displacement scaling : min:0.421875  max:1
Checking faces in error :
    non-orthogonality > 65  degrees                        : 35586
    faces with concavity > 80  degrees                     : 61
    faces with skewness > 4   (internal) or 20  (boundary) : 0
    faces with interpolation weights (0..1)  < 0.05        : 0
    faces with volume ratio of neighbour cells < 0.01      : 0
    faces with face twist < 0.02                           : 323
    faces on cells with determinant < 0.001                : 0

Iteration 4
Moving mesh using displacement scaling : min:0.316406  max:1
Checking faces in error :
    non-orthogonality > 65  degrees                        : 35464
    faces with concavity > 80  degrees                     : 52
    faces with skewness > 4   (internal) or 20  (boundary) : 0
    faces with interpolation weights (0..1)  < 0.05        : 0
    faces with volume ratio of neighbour cells < 0.01      : 0
    faces with face twist < 0.02                           : 211
    faces on cells with determinant < 0.001                : 0

Iteration 5
Displacement scaling for error reduction set to 0.
Moving mesh using displacement scaling : min:0.237305  max:1
Checking faces in error :
    non-orthogonality > 65  degrees                        : 35402
    faces with concavity > 80  degrees                     : 38
    faces with skewness > 4   (internal) or 20  (boundary) : 0
    faces with interpolation weights (0..1)  < 0.05        : 0
    faces with volume ratio of neighbour cells < 0.01      : 0
    faces with face twist < 0.02                           : 138
    faces on cells with determinant < 0.001                : 0

Iteration 6
Moving mesh using displacement scaling : min:0  max:1
Checking faces in error :
    non-orthogonality > 65  degrees                        : 35162
    faces with concavity > 80  degrees                     : 16
    faces with skewness > 4   (internal) or 20  (boundary) : 0
    faces with interpolation weights (0..1)  < 0.05        : 0
    faces with volume ratio of neighbour cells < 0.01      : 0
    faces with face twist < 0.02                           : 25
    faces on cells with determinant < 0.001                : 0

Iteration 7
Moving mesh using displacement scaling : min:0  max:1
Checking faces in error :
    non-orthogonality > 65  degrees                        : 35089
    faces with concavity > 80  degrees                     : 4
    faces with skewness > 4   (internal) or 20  (boundary) : 0
    faces with interpolation weights (0..1)  < 0.05        : 0
    faces with volume ratio of neighbour cells < 0.01      : 0
    faces with face twist < 0.02                           : 0
    faces on cells with determinant < 0.001                : 0

Iteration 8
Moving mesh using displacement scaling : min:0  max:1
Checking faces in error :
    non-orthogonality > 65  degrees                        : 35085
    faces with concavity > 80  degrees                     : 1
    faces with skewness > 4   (internal) or 20  (boundary) : 0
    faces with interpolation weights (0..1)  < 0.05        : 0
    faces with volume ratio of neighbour cells < 0.01      : 0
    faces with face twist < 0.02                           : 0
    faces on cells with determinant < 0.001                : 0

Iteration 9
Moving mesh using displacement scaling : min:0  max:1
Checking faces in error :
    non-orthogonality > 65  degrees                        : 35085
    faces with concavity > 80  degrees                     : 2
    faces with skewness > 4   (internal) or 20  (boundary) : 0
    faces with interpolation weights (0..1)  < 0.05        : 0
    faces with volume ratio of neighbour cells < 0.01      : 0
    faces with face twist < 0.02                           : 0
    faces on cells with determinant < 0.001                : 0
Moved mesh in = 4.77283 s


--> FOAM Warning : 
    From function void Foam::snappySnapDriver::doSnap(const Foam::dictionary&, const Foam::dictionary&, Foam::scalar, Foam::scalar, const Foam::snapParameters&)
    in file snappyHexMeshDriver/snappySnapDriver.C at line 2729
    Did not successfully snap mesh. Continuing to snap to resolve easy
    surfaces but the resulting mesh will not satisfy your quality constraints


Morph iteration 7
-----------------
Calculating patchDisplacement as distance to nearest surface point ...
Wanted displacement : average:1.18695 min:0 max:11.458
Calculated surface displacement in = 0.024552 s


Detecting near surfaces ...
Overriding nearest with intersection of close gaps at 402 out of 12299 points.
Overriding displacement on features :
   implicit features    : true
   explicit features    : true
   multi-patch features : false

Detected 579 baffle edges out of 24044 edges.
Initially selected 6977 points out of 12299 for reverse attraction.
Selected 11216 points out of 12299 for reverse attraction.
Stringing feature edges : changed 1118 points
Stringing feature edges : changed 127 points
Stringing feature edges : changed 37 points
Stringing feature edges : changed 8 points
Stringing feature edges : changed 1 points
Stringing feature edges : changed 0 points
Attraction:
     linear   : max:(-11.4228 -0.89717 0) avg:(-0.0704804 -0.0603301 -0.00513094)
     feature  : max:(-3.8828 16.9088 -0.0918363) avg:(-0.00730003 -0.00562649 0.0626626)
Feature analysis : total master points:12299 attraction to :
    feature point   : 1047
    feature edge    : 4244
    nearest surface : 0
    rest            : 7008

--> FOAM Warning : Displacement (-0.204497 0.0829458 0) at mesh point 73247 coord (-20.998 -308.269 0) points through the surrounding patch faces
Smoothing displacement ...
Iteration 0
Iteration 10
Iteration 20
Iteration 30
Iteration 40
Iteration 50
Iteration 60
Iteration 70
Iteration 80
Iteration 90
Displacement smoothed in = 0.798837 s


Moving mesh ...

Iteration 0
Moving mesh using displacement scaling : min:1  max:1
Checking faces in error :
    non-orthogonality > 65  degrees                        : 37511
    faces with concavity > 80  degrees                     : 148
    faces with skewness > 4   (internal) or 20  (boundary) : 1
    faces with interpolation weights (0..1)  < 0.05        : 19
    faces with volume ratio of neighbour cells < 0.01      : 3
    faces with face twist < 0.02                           : 1749
    faces on cells with determinant < 0.001                : 44

Iteration 1
Moving mesh using displacement scaling : min:0.75  max:1
Checking faces in error :
    non-orthogonality > 65  degrees                        : 36701
    faces with concavity > 80  degrees                     : 106
    faces with skewness > 4   (internal) or 20  (boundary) : 1
    faces with interpolation weights (0..1)  < 0.05        : 4
    faces with volume ratio of neighbour cells < 0.01      : 2
    faces with face twist < 0.02                           : 1184
    faces on cells with determinant < 0.001                : 28

Iteration 2
Moving mesh using displacement scaling : min:0.5625  max:1
Checking faces in error :
    non-orthogonality > 65  degrees                        : 36187
    faces with concavity > 80  degrees                     : 86
    faces with skewness > 4   (internal) or 20  (boundary) : 1
    faces with interpolation weights (0..1)  < 0.05        : 4
    faces with volume ratio of neighbour cells < 0.01      : 1
    faces with face twist < 0.02                           : 796
    faces on cells with determinant < 0.001                : 13

Iteration 3
Moving mesh using displacement scaling : min:0.421875  max:1
Checking faces in error :
    non-orthogonality > 65  degrees                        : 35857
[...]
Wanted displacement : average:1.12781 min:0 max:11.458
Calculated surface displacement in = 0.023961 s


Detecting near surfaces ...
Overriding nearest with intersection of close gaps at 396 out of 12299 points.
Overriding displacement on features :
   implicit features    : true
   explicit features    : true
   multi-patch features : false

Detected 680 baffle edges out of 24044 edges.
Initially selected 7046 points out of 12299 for reverse attraction.
Selected 11250 points out of 12299 for reverse attraction.
Stringing feature edges : changed 1130 points
Stringing feature edges : changed 138 points
Stringing feature edges : changed 40 points
Stringing feature edges : changed 7 points
Stringing feature edges : changed 1 points
Stringing feature edges : changed 0 points
Attraction:
     linear   : max:(-11.4228 -0.89717 0) avg:(-0.0695065 -0.0545357 -0.00431779)
     feature  : max:(-3.8828 16.9088 -0.0918363) avg:(-0.0111408 -0.00745793 0.0606743)
Feature analysis : total master points:12299 attraction to :
    feature point   : 1045
    feature edge    : 4326
    nearest surface : 0
    rest            : 6928

--> FOAM Warning : Displacement (-0.254655 0.0874492 0) at mesh point 73247 coord (-20.998 -308.269 0) points through the surrounding patch faces
Smoothing displacement ...
Iteration 0
Iteration 10
Iteration 20
Iteration 30
Iteration 40
Iteration 50
Iteration 60
Iteration 70
Iteration 80
Iteration 90
Displacement smoothed in = 0.784238 s


Moving mesh ...

Iteration 0
Moving mesh using displacement scaling : min:1  max:1
Checking faces in error :
    non-orthogonality > 65  degrees                        : 38670
    faces with concavity > 80  degrees                     : 193
    faces with skewness > 4   (internal) or 20  (boundary) : 4
    faces with interpolation weights (0..1)  < 0.05        : 32
    faces with volume ratio of neighbour cells < 0.01      : 4
    faces with face twist < 0.02                           : 2392
    faces on cells with determinant < 0.001                : 122

Iteration 1
Moving mesh using displacement scaling : min:0.75  max:1
Checking faces in error :
    non-orthogonality > 65  degrees                        : 37488
    faces with concavity > 80  degrees                     : 139
    faces with skewness > 4   (internal) or 20  (boundary) : 2
    faces with interpolation weights (0..1)  < 0.05        : 14
    faces with volume ratio of neighbour cells < 0.01      : 3
    faces with face twist < 0.02                           : 1714
    faces on cells with determinant < 0.001                : 44

Iteration 2
Moving mesh using displacement scaling : min:0.5625  max:1
Checking faces in error :
    non-orthogonality > 65  degrees                        : 36740
    faces with concavity > 80  degrees                     : 99
    faces with skewness > 4   (internal) or 20  (boundary) : 3
    faces with interpolation weights (0..1)  < 0.05        : 6
    faces with volume ratio of neighbour cells < 0.01      : 1
    faces with face twist < 0.02                           : 1200
    faces on cells with determinant < 0.001                : 25

Iteration 3
Moving mesh using displacement scaling : min:0.421875  max:1
Checking faces in error :
    non-orthogonality > 65  degrees                        : 36217
    faces with concavity > 80  degrees                     : 88
    faces with skewness > 4   (internal) or 20  (boundary) : 0
    faces with interpolation weights (0..1)  < 0.05        : 2
    faces with volume ratio of neighbour cells < 0.01      : 0
    faces with face twist < 0.02                           : 862
    faces on cells with determinant < 0.001                : 6

Iteration 4
Moving mesh using displacement scaling : min:0.316406  max:1
Checking faces in error :
    non-orthogonality > 65  degrees                        : 35887
    faces with concavity > 80  degrees                     : 73
    faces with skewness > 4   (internal) or 20  (boundary) : 1
    faces with interpolation weights (0..1)  < 0.05        : 0
    faces with volume ratio of neighbour cells < 0.01      : 0
    faces with face twist < 0.02                           : 581
    faces on cells with determinant < 0.001                : 7

Iteration 5
Displacement scaling for error reduction set to 0.
Moving mesh using displacement scaling : min:0.237305  max:1
Checking faces in error :
    non-orthogonality > 65  degrees                        : 35672
    faces with concavity > 80  degrees                     : 62
    faces with skewness > 4   (internal) or 20  (boundary) : 0
    faces with interpolation weights (0..1)  < 0.05        : 0
    faces with volume ratio of neighbour cells < 0.01      : 0
    faces with face twist < 0.02                           : 442
    faces on cells with determinant < 0.001                : 0

Iteration 6
Moving mesh using displacement scaling : min:0  max:1
Checking faces in error :
    non-orthogonality > 65  degrees                        : 35194
    faces with concavity > 80  degrees                     : 17
    faces with skewness > 4   (internal) or 20  (boundary) : 0
    faces with interpolation weights (0..1)  < 0.05        : 0
    faces with volume ratio of neighbour cells < 0.01      : 0
    faces with face twist < 0.02                           : 58
    faces on cells with determinant < 0.001                : 0

Iteration 7
Moving mesh using displacement scaling : min:0  max:1
Checking faces in error :
    non-orthogonality > 65  degrees                        : 35088
    faces with concavity > 80  degrees                     : 3
    faces with skewness > 4   (internal) or 20  (boundary) : 0
    faces with interpolation weights (0..1)  < 0.05        : 0
    faces with volume ratio of neighbour cells < 0.01      : 0
    faces with face twist < 0.02                           : 0
    faces on cells with determinant < 0.001                : 0

Iteration 8
Moving mesh using displacement scaling : min:0  max:1
Checking faces in error :
    non-orthogonality > 65  degrees                        : 35085
    faces with concavity > 80  degrees                     : 2
    faces with skewness > 4   (internal) or 20  (boundary) : 0
    faces with interpolation weights (0..1)  < 0.05        : 0
    faces with volume ratio of neighbour cells < 0.01      : 0
    faces with face twist < 0.02                           : 0
    faces on cells with determinant < 0.001                : 0

Iteration 9
Moving mesh using displacement scaling : min:0  max:1
Checking faces in error :
    non-orthogonality > 65  degrees                        : 35085
    faces with concavity > 80  degrees                     : 2
    faces with skewness > 4   (internal) or 20  (boundary) : 0
    faces with interpolation weights (0..1)  < 0.05        : 0
    faces with volume ratio of neighbour cells < 0.01      : 0
    faces with face twist < 0.02                           : 0
    faces on cells with determinant < 0.001                : 0
Moved mesh in = 4.79968 s


--> FOAM Warning : 
    From function void Foam::snappySnapDriver::doSnap(const Foam::dictionary&, const Foam::dictionary&, Foam::scalar, Foam::scalar, const Foam::snapParameters&)
    in file snappyHexMeshDriver/snappySnapDriver.C at line 2729
    Did not successfully snap mesh. Continuing to snap to resolve easy
    surfaces but the resulting mesh will not satisfy your quality constraints


Morph iteration 9
-----------------
Calculating patchDisplacement as distance to nearest surface point ...
Wanted displacement : average:1.09276 min:0 max:11.458
Calculated surface displacement in = 0.023957 s


Detecting near surfaces ...
Overriding nearest with intersection of close gaps at 415 out of 12299 points.
Overriding displacement on features :
   implicit features    : true
   explicit features    : true
   multi-patch features : false

Detected 796 baffle edges out of 24044 edges.
Initially selected 7077 points out of 12299 for reverse attraction.
Selected 11263 points out of 12299 for reverse attraction.
Stringing feature edges : changed 1130 points
Stringing feature edges : changed 131 points
Stringing feature edges : changed 42 points
Stringing feature edges : changed 8 points
Stringing feature edges : changed 0 points
Attraction:
     linear   : max:(-11.4228 -0.89717 0) avg:(-0.068899 -0.0471695 -0.00392827)
     feature  : max:(-3.8828 16.9088 -0.0918363) avg:(-0.0132123 -0.00940487 0.0628871)
Feature analysis : total master points:12299 attraction to :
    feature point   : 1049
    feature edge    : 4352
    nearest surface : 0
    rest            : 6898

--> FOAM Warning : Displacement (-0.310279 0.0906494 0) at mesh point 73247 coord (-20.998 -308.269 0) points through the surrounding patch faces
Smoothing displacement ...
Iteration 0
Iteration 10
Iteration 20
Iteration 30
Iteration 40
Iteration 50
Iteration 60
Iteration 70
Iteration 80
Iteration 90
Displacement smoothed in = 0.793879 s


Moving mesh ...

Iteration 0
Moving mesh using displacement scaling : min:1  max:1
Checking faces in error :
    non-orthogonality > 65  degrees                        : 39050
    faces with concavity > 80  degrees                     : 408
    faces with skewness > 4   (internal) or 20  (boundary) : 7
    faces with interpolation weights (0..1)  < 0.05        : 42
    faces with volume ratio of neighbour cells < 0.01      : 11
    faces with face twist < 0.02                           : 3139
    faces on cells with determinant < 0.001                : 129

Iteration 1
Moving mesh using displacement scaling : min:0.75  max:1
Checking faces in error :
    non-orthogonality > 65  degrees                        : 37761
    faces with concavity > 80  degrees                     : 204
    faces with skewness > 4   (internal) or 20  (boundary) : 0
    faces with interpolation weights (0..1)  < 0.05        : 19
    faces with volume ratio of neighbour cells < 0.01      : 4
    faces with face twist < 0.02                           : 1793
    faces on cells with determinant < 0.001                : 68

Iteration 2
Moving mesh using displacement scaling : min:0.5625  max:1
Checking faces in error :
    non-orthogonality > 65  degrees                        : 36893
    faces with concavity > 80  degrees                     : 125
    faces with skewness > 4   (internal) or 20  (boundary) : 1
    faces with interpolation weights (0..1)  < 0.05        : 11
    faces with volume ratio of neighbour cells < 0.01      : 0
    faces with face twist < 0.02                           : 1259
    faces on cells with determinant < 0.001                : 26

Iteration 3
Moving mesh using displacement scaling : min:0.421875  max:1
Checking faces in error :
    non-orthogonality > 65  degrees                        : 36295
    faces with concavity > 80  degrees                     : 97
    faces with skewness > 4   (internal) or 20  (boundary) : 1
    faces with interpolation weights (0..1)  < 0.05        : 1
    faces with volume ratio of neighbour cells < 0.01      : 0
    faces with face twist < 0.02                           : 834
    faces on cells with determinant < 0.001                : 15

Iteration 4
Moving mesh using displacement scaling : min:0.316406  max:1
Checking faces in error :
    non-orthogonality > 65  degrees                        : 35947
    faces with concavity > 80  degrees                     : 67
    faces with skewness > 4   (internal) or 20  (boundary) : 0
    faces with interpolation weights (0..1)  < 0.05        : 0
    faces with volume ratio of neighbour cells < 0.01      : 0
    faces with face twist < 0.02                           : 595
    faces on cells with determinant < 0.001                : 9

Iteration 5
Displacement scaling for error reduction set to 0.
Moving mesh using displacement scaling : min:0.237305  max:1
Checking faces in error :
    non-orthogonality > 65  degrees                        : 35734
    faces with concavity > 80  degrees                     : 55
    faces with skewness > 4   (internal) or 20  (boundary) : 0
    faces with interpolation weights (0..1)  < 0.05        : 1
    faces with volume ratio of neighbour cells < 0.01      : 0
    faces with face twist < 0.02                           : 399
    faces on cells with determinant < 0.001                : 0

Iteration 6
Moving mesh using displacement scaling : min:0  max:1
Checking faces in error :
    non-orthogonality > 65  degrees                        : 35182
    faces with concavity > 80  degrees                     : 26
    faces with skewness > 4   (internal) or 20  (boundary) : 0
    faces with interpolation weights (0..1)  < 0.05        : 0
    faces with volume ratio of neighbour cells < 0.01      : 0
    faces with face twist < 0.02                           : 52
    faces on cells with determinant < 0.001                : 0

Iteration 7
Moving mesh using displacement scaling : min:0  max:1
Checking faces in error :
    non-orthogonality > 65  degrees                        : 35094
    faces with concavity > 80  degrees                     : 5
    faces with skewness > 4   (internal) or 20  (boundary) : 0
    faces with interpolation weights (0..1)  < 0.05        : 0
    faces with volume ratio of neighbour cells < 0.01      : 0
    faces with face twist < 0.02                           : 8
    faces on cells with determinant < 0.001                : 0

Iteration 8
Moving mesh using displacement scaling : min:0  max:1
Checking faces in error :
    non-orthogonality > 65  degrees                        : 35085
    faces with concavity > 80  degrees                     : 2
    faces with skewness > 4   (internal) or 20  (boundary) : 0
    faces with interpolation weights (0..1)  < 0.05        : 0
    faces with volume ratio of neighbour cells < 0.01      : 0
    faces with face twist < 0.02                           : 0
    faces on cells with determinant < 0.001                : 0

Iteration 9
Moving mesh using displacement scaling : min:0  max:1
Checking faces in error :
    non-orthogonality > 65  degrees                        : 35085
    faces with concavity > 80  degrees                     : 3
    faces with skewness > 4   (internal) or 20  (boundary) : 0
    faces with interpolation weights (0..1)  < 0.05        : 0
    faces with volume ratio of neighbour cells < 0.01      : 0
    faces with face twist < 0.02                           : 0
    faces on cells with determinant < 0.001                : 0
Moved mesh in = 4.7786 s


--> FOAM Warning : 
    From function void Foam::snappySnapDriver::doSnap(const Foam::dictionary&, const Foam::dictionary&, Foam::scalar, Foam::scalar, const Foam::snapParameters&)
    in file snappyHexMeshDriver/snappySnapDriver.C at line 2729
    Did not successfully snap mesh. Continuing to snap to resolve easy
    surfaces but the resulting mesh will not satisfy your quality constraints

Repatching faces according to nearest surface ...
Repatched 0 faces in = 0.034065 s


Edge intersection testing:
    Number of edges             : 824495
    Number of edges to retest   : 167131
    Number of intersected edges : 9320
Merging 1095 sets of faces.

Edge intersection testing:
    Number of edges             : 823338
    Number of edges to retest   : 4634
    Number of intersected edges : 8381

Undo iteration 0
----------------
Checking faces in error :
    non-orthogonality > 65  degrees                        : 35161
    faces with concavity > 80  degrees                     : 3
    faces with skewness > 4   (internal) or 20  (boundary) : 0
    faces with interpolation weights (0..1)  < 0.05        : 0
    faces with volume ratio of neighbour cells < 0.01      : 0
    faces with face twist < 0.02                           : 114
    faces on cells with determinant < 0.001                : 0
Masters that need to be restored:188
Edge intersection testing:
    Number of edges             : 823555
    Number of edges to retest   : 1084
    Number of intersected edges : 8537


Undo iteration 1
----------------
Checking faces in error :
    non-orthogonality > 65  degrees                        : 35087
    faces with concavity > 80  degrees                     : 3
    faces with skewness > 4   (internal) or 20  (boundary) : 0
    faces with interpolation weights (0..1)  < 0.05        : 0
    faces with volume ratio of neighbour cells < 0.01      : 0
    faces with face twist < 0.02                           : 0
    faces on cells with determinant < 0.001                : 0
Masters that need to be restored:2
Edge intersection testing:
    Number of edges             : 823558
    Number of edges to retest   : 12
    Number of intersected edges : 8539


Undo iteration 2
----------------
Checking faces in error :
    non-orthogonality > 65  degrees                        : 35085
    faces with concavity > 80  degrees                     : 3
    faces with skewness > 4   (internal) or 20  (boundary) : 0
    faces with interpolation weights (0..1)  < 0.05        : 0
    faces with volume ratio of neighbour cells < 0.01      : 0
    faces with face twist < 0.02                           : 0
    faces on cells with determinant < 0.001                : 0
Masters that need to be restored:0

Merging all points on surface that
- are used by only two boundary faces and
- make an angle with a cosine of more than 0.866025.

Removing 646 straight edge points ...

Edge intersection testing:
    Number of edges             : 823558
    Number of edges to retest   : 3268
    Number of intersected edges : 8530

Undo iteration 0
----------------
Checking faces in error :
    non-orthogonality > 65  degrees                        : 35111
    faces with concavity > 80  degrees                     : 5
    faces with skewness > 4   (internal) or 20  (boundary) : 0
    faces with interpolation weights (0..1)  < 0.05        : 0
    faces with volume ratio of neighbour cells < 0.01      : 0
    faces with face twist < 0.02                           : 2
    faces on cells with determinant < 0.001                : 0
Detected 4 error faces on boundaries that have been merged. These will be restored to their original faces.

Edge intersection testing:
    Number of edges             : 823558
    Number of edges to retest   : 20
    Number of intersected edges : 8531

Undo iteration 1
----------------
Checking faces in error :
    non-orthogonality > 65  degrees                        : 35111
    faces with concavity > 80  degrees                     : 3
    faces with skewness > 4   (internal) or 20  (boundary) : 0
    faces with interpolation weights (0..1)  < 0.05        : 0
    faces with volume ratio of neighbour cells < 0.01      : 0
    faces with face twist < 0.02                           : 0
    faces on cells with determinant < 0.001                : 0
Detected 0 error faces on boundaries that have been merged. These will be restored to their original faces.

Detected 35114 error faces in mesh. Restoring neighbours of faces in error.

Edge intersection testing:
    Number of edges             : 823558
    Number of edges to retest   : 307600
    Number of intersected edges : 8538
Snapped mesh : cells:260556  faces:823558  points:302994
Cells per refinement level:
    0	36614
    1	6858
    2	152300
    3	64784
Writing mesh to time constant
Wrote mesh in = 3.09226 s.
Mesh snapped in = 62.7863 s.
Checking final mesh ...
Checking faces in error :
    non-orthogonality > 65  degrees                        : 35085
    faces with concavity > 80  degrees                     : 3
    faces with skewness > 4   (internal) or 20  (boundary) : 0
    faces with interpolation weights (0..1)  < 0.05        : 0
    faces with volume ratio of neighbour cells < 0.01      : 0
    faces with face twist < 0.02                           : 0
    faces on cells with determinant < 0.001                : 0
Finished meshing with 35088 illegal faces (concave, zero area or negative cell pyramid volume)
Finished meshing in = 76.952 s.
End

