/*---------------------------------------------------------------------------*\
  =========                 |
  \\      /  F ield         | OpenFOAM: The Open Source CFD Toolbox
   \\    /   O peration     | Website:  https://openfoam.org
    \\  /    A nd           | Version:  13
     \\/     M anipulation  |
\*---------------------------------------------------------------------------*/
Build  : 13-441953dfbb42
Exec   : foamRun -solver incompressibleFluid
Date   : May 12 2026
Time   : 14:38:31
Host   : "openfoam"
PID    : 1938
I/O    : uncollated
Case   : /home/ubuntu/OpenFOAM/ubuntu-v13/run/wStockTest/rans/winter
nProcs : 1
sigFpe : Floating point exception trapping - not supported on this platform
fileModificationChecking : Monitoring run-time modified files using timeStampMaster (fileModificationSkew 10)
allowSystemOperations : Allowing user-supplied system call operations

// * * * * * * * * * * * * * * * * * * * * * * * * * * * * * * * * * * * * * //
Create time

Create mesh for time = 0

Selecting solver incompressibleFluid
Selecting viscosity model constant
Selecting turbulence model type RAS
    Selecting RAS turbulence model kEpsilon
No MRF models present


SIMPLE: Convergence criteria found
        p: tolerance 1e-05
        U: tolerance 1e-06
        k: tolerance 1e-06
        epsilon: tolerance 1e-06


SIMPLE: Operating solver in steady-state mode with 1 outer corrector
SIMPLE: Operating solver in SIMPLE mode



Starting time loop

Time = 1s

smoothSolver:  Solving for Ux, Initial residual = 1, Final residual = 0.0278904, No Iterations 2
smoothSolver:  Solving for Uy, Initial residual = 1, Final residual = 0.0533667, No Iterations 2
smoothSolver:  Solving for Uz, Initial residual = 1, Final residual = 0.026815, No Iterations 2
GAMG:  Solving for p, Initial residual = 1, Final residual = 0.0475862, No Iterations 89
GAMG:  Solving for p, Initial residual = 0.217262, Final residual = 0.00951352, No Iterations 2
GAMG:  Solving for p, Initial residual = 0.0547899, Final residual = 0.00244552, No Iterations 3
time step continuity errors : sum local = 0.000287412, global = 1.85287e-05, cumulative = 1.85287e-05
smoothSolver:  Solving for epsilon, Initial residual = 0.309889, Final residual = 0.00323848, No Iterations 1
smoothSolver:  Solving for k, Initial residual = 1, Final residual = 0.0229828, No Iterations 1
ExecutionTime = 2.73454 s  ClockTime = 3 s

Time = 2s

smoothSolver:  Solving for Ux, Initial residual = 0.538286, Final residual = 0.0511148, No Iterations 1
smoothSolver:  Solving for Uy, Initial residual = 0.593872, Final residual = 0.0250614, No Iterations 2
smoothSolver:  Solving for Uz, Initial residual = 0.320703, Final residual = 0.0160292, No Iterations 2
GAMG:  Solving for p, Initial residual = 0.0510957, Final residual = 0.00241128, No Iterations 60
GAMG:  Solving for p, Initial residual = 0.125542, Final residual = 0.00397471, No Iterations 3
GAMG:  Solving for p, Initial residual = 0.0360608, Final residual = 0.00164374, No Iterations 4
time step continuity errors : sum local = 0.000147103, global = 2.48449e-05, cumulative = 4.33736e-05
smoothSolver:  Solving for epsilon, Initial residual = 0.132496, Final residual = 0.000325237, No Iterations 1
smoothSolver:  Solving for k, Initial residual = 0.202635, Final residual = 0.0064461, No Iterations 1
ExecutionTime = 4.23371 s  ClockTime = 4 s

Time = 3s

smoothSolver:  Solving for Ux, Initial residual = 0.294694, Final residual = 0.0233822, No Iterations 1
smoothSolver:  Solving for Uy, Initial residual = 0.301099, Final residual = 0.0113153, No Iterations 2
smoothSolver:  Solving for Uz, Initial residual = 0.174852, Final residual = 0.00831637, No Iterations 2
GAMG:  Solving for p, Initial residual = 0.0519477, Final residual = 0.00250962, No Iterations 62
GAMG:  Solving for p, Initial residual = 0.344591, Final residual = 0.0164727, No Iterations 2
GAMG:  Solving for p, Initial residual = 0.118188, Final residual = 0.00576485, No Iterations 3
time step continuity errors : sum local = 0.000291047, global = -1.62386e-05, cumulative = 2.71349e-05
smoothSolver:  Solving for epsilon, Initial residual = 0.0276715, Final residual = 0.00012857, No Iterations 1
smoothSolver:  Solving for k, Initial residual = 0.0728262, Final residual = 0.00376335, No Iterations 1
ExecutionTime = 5.73025 s  ClockTime = 6 s

Time = 4s

smoothSolver:  Solving for Ux, Initial residual = 0.103502, Final residual = 0.00821887, No Iterations 1
smoothSolver:  Solving for Uy, Initial residual = 0.136691, Final residual = 0.00465436, No Iterations 2
smoothSolver:  Solving for Uz, Initial residual = 0.141265, Final residual = 0.00550805, No Iterations 2
GAMG:  Solving for p, Initial residual = 0.0750834, Final residual = 0.00357434, No Iterations 86
GAMG:  Solving for p, Initial residual = 0.268581, Final residual = 0.0118127, No Iterations 2
GAMG:  Solving for p, Initial residual = 0.0715493, Final residual = 0.00319339, No Iterations 3
time step continuity errors : sum local = 0.000383871, global = -2.42674e-05, cumulative = 2.86757e-06
smoothSolver:  Solving for epsilon, Initial residual = 0.0121496, Final residual = 0.000124505, No Iterations 1
smoothSolver:  Solving for k, Initial residual = 0.05573, Final residual = 0.00291202, No Iterations 1
ExecutionTime = 7.63956 s  ClockTime = 8 s

Time = 5s

smoothSolver:  Solving for Ux, Initial residual = 0.11596, Final residual = 0.00835619, No Iterations 1
smoothSolver:  Solving for Uy, Initial residual = 0.201696, Final residual = 0.00511568, No Iterations 2
smoothSolver:  Solving for Uz, Initial residual = 0.243294, Final residual = 0.0102902, No Iterations 2
GAMG:  Solving for p, Initial residual = 0.102772, Final residual = 0.00478791, No Iterations 49
GAMG:  Solving for p, Initial residual = 0.166176, Final residual = 0.00539573, No Iterations 3
GAMG:  Solving for p, Initial residual = 0.0437117, Final residual = 0.00200394, No Iterations 5
time step continuity errors : sum local = 0.000116488, global = 1.1576e-05, cumulative = 1.44436e-05
smoothSolver:  Solving for epsilon, Initial residual = 0.00884575, Final residual = 0.000164564, No Iterations 1
smoothSolver:  Solving for k, Initial residual = 0.0597057, Final residual = 0.00304236, No Iterations 1
ExecutionTime = 8.96626 s  ClockTime = 9 s

Time = 6s

smoothSolver:  Solving for Ux, Initial residual = 0.193408, Final residual = 0.0149851, No Iterations 1
smoothSolver:  Solving for Uy, Initial residual = 0.253959, Final residual = 0.00702613, No Iterations 2
smoothSolver:  Solving for Uz, Initial residual = 0.184883, Final residual = 0.00832486, No Iterations 2
GAMG:  Solving for p, Initial residual = 0.0695578, Final residual = 0.00331306, No Iterations 46
GAMG:  Solving for p, Initial residual = 0.253732, Final residual = 0.00758586, No Iterations 3
GAMG:  Solving for p, Initial residual = 0.0790461, Final residual = 0.00387917, No Iterations 4
time step continuity errors : sum local = 0.000145018, global = 2.4373e-05, cumulative = 3.88166e-05
smoothSolver:  Solving for epsilon, Initial residual = 0.00827862, Final residual = 0.000264816, No Iterations 1
smoothSolver:  Solving for k, Initial residual = 0.0457115, Final residual = 0.00345285, No Iterations 1
ExecutionTime = 10.2243 s  ClockTime = 10 s

Time = 7s

smoothSolver:  Solving for Ux, Initial residual = 0.0847766, Final residual = 0.00182776, No Iterations 2
smoothSolver:  Solving for Uy, Initial residual = 0.168581, Final residual = 0.00557721, No Iterations 2
smoothSolver:  Solving for Uz, Initial residual = 0.168638, Final residual = 0.00828438, No Iterations 2
GAMG:  Solving for p, Initial residual = 0.116342, Final residual = 0.00573029, No Iterations 68
GAMG:  Solving for p, Initial residual = 0.235165, Final residual = 0.0100942, No Iterations 2
GAMG:  Solving for p, Initial residual = 0.0612687, Final residual = 0.00298497, No Iterations 3
time step continuity errors : sum local = 0.00021901, global = 1.27368e-05, cumulative = 5.15534e-05
smoothSolver:  Solving for epsilon, Initial residual = 0.00935787, Final residual = 0.000413831, No Iterations 1
smoothSolver:  Solving for k, Initial residual = 0.0272792, Final residual = 0.00080531, No Iterations 2
ExecutionTime = 11.8343 s  ClockTime = 12 s

Time = 8s

smoothSolver:  Solving for Ux, Initial residual = 0.0812484, Final residual = 0.00586587, No Iterations 1
smoothSolver:  Solving for Uy, Initial residual = 0.154013, Final residual = 0.00521876, No Iterations 2
smoothSolver:  Solving for Uz, Initial residual = 0.213987, Final residual = 0.0103938, No Iterations 2
GAMG:  Solving for p, Initial residual = 0.117907, Final residual = 0.00579761, No Iterations 42
GAMG:  Solving for p, Initial residual = 0.186847, Final residual = 0.0062734, No Iterations 3
GAMG:  Solving for p, Initial residual = 0.0488621, Final residual = 0.00235012, No Iterations 5
time step continuity errors : sum local = 8.96138e-05, global = -8.66094e-06, cumulative = 4.28925e-05
smoothSolver:  Solving for epsilon, Initial residual = 0.0109452, Final residual = 0.000535859, No Iterations 1
smoothSolver:  Solving for k, Initial residual = 0.0268152, Final residual = 0.000771684, No Iterations 2
bounding k, min: -0.000891733 max: 7.52776 average: 1.17312
ExecutionTime = 13.0518 s  ClockTime = 13 s

Time = 9s

smoothSolver:  Solving for Ux, Initial residual = 0.0993421, Final residual = 0.008344, No Iterations 1
smoothSolver:  Solving for Uy, Initial residual = 0.132131, Final residual = 0.00485815, No Iterations 2
smoothSolver:  Solving for Uz, Initial residual = 0.164058, Final residual = 0.00731836, No Iterations 2
GAMG:  Solving for p, Initial residual = 0.0836109, Final residual = 0.00400887, No Iterations 38
GAMG:  Solving for p, Initial residual = 0.199878, Final residual = 0.00720681, No Iterations 3
GAMG:  Solving for p, Initial residual = 0.0654933, Final residual = 0.00314779, No Iterations 7
time step continuity errors : sum local = 6.56446e-05, global = 7.40657e-06, cumulative = 5.0299e-05
smoothSolver:  Solving for epsilon, Initial residual = 0.0128118, Final residual = 0.000528324, No Iterations 1
smoothSolver:  Solving for k, Initial residual = 0.0325468, Final residual = 0.0030303, No Iterations 1
ExecutionTime = 14.2216 s  ClockTime = 14 s

Time = 10s

smoothSolver:  Solving for Ux, Initial residual = 0.0424069, Final residual = 0.00101962, No Iterations 2
smoothSolver:  Solving for Uy, Initial residual = 0.127527, Final residual = 0.00405669, No Iterations 2
smoothSolver:  Solving for Uz, Initial residual = 0.152591, Final residual = 0.00667682, No Iterations 2
GAMG:  Solving for p, Initial residual = 0.119743, Final residual = 0.00590168, No Iterations 60
GAMG:  Solving for p, Initial residual = 0.21718, Final residual = 0.00991292, No Iterations 2
GAMG:  Solving for p, Initial residual = 0.0608978, Final residual = 0.00234819, No Iterations 4
time step continuity errors : sum local = 9.54714e-05, global = 1.5645e-05, cumulative = 6.5944e-05
smoothSolver:  Solving for epsilon, Initial residual = 0.0137355, Final residual = 0.00048878, No Iterations 1
smoothSolver:  Solving for k, Initial residual = 0.025618, Final residual = 0.00252754, No Iterations 1
bounding k, min: -0.00363124 max: 7.45164 average: 1.15247
ExecutionTime = 15.7117 s  ClockTime = 16 s

Time = 11s

smoothSolver:  Solving for Ux, Initial residual = 0.0410592, Final residual = 0.000937866, No Iterations 2
smoothSolver:  Solving for Uy, Initial residual = 0.130939, Final residual = 0.00378411, No Iterations 2
smoothSolver:  Solving for Uz, Initial residual = 0.190261, Final residual = 0.00833425, No Iterations 2
GAMG:  Solving for p, Initial residual = 0.15341, Final residual = 0.00717151, No Iterations 43
GAMG:  Solving for p, Initial residual = 0.231308, Final residual = 0.00774477, No Iterations 3
GAMG:  Solving for p, Initial residual = 0.0604815, Final residual = 0.00294858, No Iterations 5
time step continuity errors : sum local = 6.5126e-05, global = 6.27986e-06, cumulative = 7.22238e-05
smoothSolver:  Solving for epsilon, Initial residual = 0.0132052, Final residual = 0.000403294, No Iterations 1
smoothSolver:  Solving for k, Initial residual = 0.0224329, Final residual = 0.00219664, No Iterations 1
ExecutionTime = 16.9394 s  ClockTime = 17 s

Time = 12s

smoothSolver:  Solving for Ux, Initial residual = 0.0551489, Final residual = 0.00122658, No Iterations 2
smoothSolver:  Solving for Uy, Initial residual = 0.119575, Final residual = 0.00374627, No Iterations 2
smoothSolver:  Solving for Uz, Initial residual = 0.14926, Final residual = 0.00670013, No Iterations 2
GAMG:  Solving for p, Initial residual = 0.113878, Final residual = 0.00527086, No Iterations 32
GAMG:  Solving for p, Initial residual = 0.177224, Final residual = 0.00683597, No Iterations 3
GAMG:  Solving for p, Initial residual = 0.0551619, Final residual = 0.00260532, No Iterations 9
time step continuity errors : sum local = 3.64245e-05, global = -5.14924e-06, cumulative = 6.70746e-05
smoothSolver:  Solving for epsilon, Initial residual = 0.0147097, Final residual = 0.000385498, No Iterations 1
smoothSolver:  Solving for k, Initial residual = 0.02606, Final residual = 0.00213116, No Iterations 1
ExecutionTime = 18.0467 s  ClockTime = 18 s

Time = 13s

smoothSolver:  Solving for Ux, Initial residual = 0.0267364, Final residual = 0.000838068, No Iterations 2
smoothSolver:  Solving for Uy, Initial residual = 0.108729, Final residual = 0.00402951, No Iterations 2
smoothSolver:  Solving for Uz, Initial residual = 0.130372, Final residual = 0.00632076, No Iterations 2
GAMG:  Solving for p, Initial residual = 0.173709, Final residual = 0.00857422, No Iterations 50
GAMG:  Solving for p, Initial residual = 0.19013, Final residual = 0.00584647, No Iterations 3
GAMG:  Solving for p, Initial residual = 0.0529749, Final residual = 0.00224601, No Iterations 5
time step continuity errors : sum local = 5.54314e-05, global = -6.7187e-06, cumulative = 6.03559e-05
smoothSolver:  Solving for epsilon, Initial residual = 0.0170164, Final residual = 0.000408944, No Iterations 1
smoothSolver:  Solving for k, Initial residual = 0.021176, Final residual = 0.00203089, No Iterations 1
ExecutionTime = 19.3936 s  ClockTime = 20 s

Time = 14s

smoothSolver:  Solving for Ux, Initial residual = 0.0282452, Final residual = 0.00253075, No Iterations 1
smoothSolver:  Solving for Uy, Initial residual = 0.0973703, Final residual = 0.00397312, No Iterations 2
smoothSolver:  Solving for Uz, Initial residual = 0.15017, Final residual = 0.00697149, No Iterations 2
GAMG:  Solving for p, Initial residual = 0.162947, Final residual = 0.0077331, No Iterations 47
GAMG:  Solving for p, Initial residual = 0.222788, Final residual = 0.00792542, No Iterations 3
GAMG:  Solving for p, Initial residual = 0.0577813, Final residual = 0.0026566, No Iterations 7
time step continuity errors : sum local = 4.09714e-05, global = -5.24396e-06, cumulative = 5.5112e-05
smoothSolver:  Solving for epsilon, Initial residual = 0.0178852, Final residual = 0.000407363, No Iterations 1
smoothSolver:  Solving for k, Initial residual = 0.0169628, Final residual = 0.000387187, No Iterations 2
ExecutionTime = 20.7226 s  ClockTime = 21 s

Time = 15s

smoothSolver:  Solving for Ux, Initial residual = 0.0313274, Final residual = 0.00301748, No Iterations 1
smoothSolver:  Solving for Uy, Initial residual = 0.0918515, Final residual = 0.00374091, No Iterations 2
smoothSolver:  Solving for Uz, Initial residual = 0.132513, Final residual = 0.00540614, No Iterations 2
GAMG:  Solving for p, Initial residual = 0.125459, Final residual = 0.00565518, No Iterations 28
GAMG:  Solving for p, Initial residual = 0.187841, Final residual = 0.00837338, No Iterations 3
GAMG:  Solving for p, Initial residual = 0.0562407, Final residual = 0.00253488, No Iterations 11
time step continuity errors : sum local = 2.14965e-05, global = 3.14476e-06, cumulative = 5.82567e-05
smoothSolver:  Solving for epsilon, Initial residual = 0.0175382, Final residual = 0.000375009, No Iterations 1
smoothSolver:  Solving for k, Initial residual = 0.0166903, Final residual = 0.00161704, No Iterations 1
ExecutionTime = 21.7898 s  ClockTime = 22 s

Time = 16s

smoothSolver:  Solving for Ux, Initial residual = 0.0191737, Final residual = 0.000597861, No Iterations 2
smoothSolver:  Solving for Uy, Initial residual = 0.0918399, Final residual = 0.00361231, No Iterations 2
smoothSolver:  Solving for Uz, Initial residual = 0.116203, Final residual = 0.00498565, No Iterations 2
GAMG:  Solving for p, Initial residual = 0.150487, Final residual = 0.0070836, No Iterations 40
GAMG:  Solving for p, Initial residual = 0.162971, Final residual = 0.00586361, No Iterations 3
GAMG:  Solving for p, Initial residual = 0.0486107, Final residual = 0.00234991, No Iterations 7
time step continuity errors : sum local = 3.27919e-05, global = 4.04477e-06, cumulative = 6.23015e-05
smoothSolver:  Solving for epsilon, Initial residual = 0.0171997, Final residual = 0.000328216, No Iterations 1
smoothSolver:  Solving for k, Initial residual = 0.0140853, Final residual = 0.000294035, No Iterations 2
ExecutionTime = 23.0057 s  ClockTime = 23 s

Time = 17s

smoothSolver:  Solving for Ux, Initial residual = 0.0170519, Final residual = 0.000584905, No Iterations 2
smoothSolver:  Solving for Uy, Initial residual = 0.0846391, Final residual = 0.00339, No Iterations 2
smoothSolver:  Solving for Uz, Initial residual = 0.121818, Final residual = 0.00567004, No Iterations 2
GAMG:  Solving for p, Initial residual = 0.19788, Final residual = 0.00969808, No Iterations 43
GAMG:  Solving for p, Initial residual = 0.23376, Final residual = 0.00896285, No Iterations 3
GAMG:  Solving for p, Initial residual = 0.0652507, Final residual = 0.00300117, No Iterations 9
time step continuity errors : sum local = 2.76741e-05, global = 4.26782e-06, cumulative = 6.65693e-05
smoothSolver:  Solving for epsilon, Initial residual = 0.0167838, Final residual = 0.000300134, No Iterations 1
smoothSolver:  Solving for k, Initial residual = 0.0140046, Final residual = 0.00132804, No Iterations 1
ExecutionTime = 24.3001 s  ClockTime = 24 s

Time = 18s

smoothSolver:  Solving for Ux, Initial residual = 0.0184775, Final residual = 0.000619658, No Iterations 2
smoothSolver:  Solving for Uy, Initial residual = 0.0711668, Final residual = 0.00295549, No Iterations 2
smoothSolver:  Solving for Uz, Initial residual = 0.111905, Final residual = 0.00516187, No Iterations 2
GAMG:  Solving for p, Initial residual = 0.160653, Final residual = 0.00796869, No Iterations 24
GAMG:  Solving for p, Initial residual = 0.193911, Final residual = 0.00903747, No Iterations 3
GAMG:  Solving for p, Initial residual = 0.0595093, Final residual = 0.00273138, No Iterations 11
time step continuity errors : sum local = 1.6676e-05, global = -2.46206e-06, cumulative = 6.41073e-05
smoothSolver:  Solving for epsilon, Initial residual = 0.017196, Final residual = 0.000293221, No Iterations 1
smoothSolver:  Solving for k, Initial residual = 0.0140093, Final residual = 0.00126694, No Iterations 1
ExecutionTime = 25.3079 s  ClockTime = 25 s

Time = 19s

smoothSolver:  Solving for Ux, Initial residual = 0.0142531, Final residual = 0.000504984, No Iterations 2
smoothSolver:  Solving for Uy, Initial residual = 0.0673636, Final residual = 0.00284457, No Iterations 2
smoothSolver:  Solving for Uz, Initial residual = 0.109268, Final residual = 0.00494436, No Iterations 2
GAMG:  Solving for p, Initial residual = 0.207135, Final residual = 0.00936981, No Iterations 32
GAMG:  Solving for p, Initial residual = 0.150644, Final residual = 0.00588787, No Iterations 3
GAMG:  Solving for p, Initial residual = 0.046563, Final residual = 0.00222797, No Iterations 9
time step continuity errors : sum local = 2.02723e-05, global = -2.99992e-06, cumulative = 6.11073e-05
smoothSolver:  Solving for epsilon, Initial residual = 0.0178802, Final residual = 0.000296249, No Iterations 1
smoothSolver:  Solving for k, Initial residual = 0.0124573, Final residual = 0.00121012, No Iterations 1
ExecutionTime = 26.4169 s  ClockTime = 27 s

Time = 20s

smoothSolver:  Solving for Ux, Initial residual = 0.0138617, Final residual = 0.000387082, No Iterations 2
smoothSolver:  Solving for Uy, Initial residual = 0.0693237, Final residual = 0.00297252, No Iterations 2
smoothSolver:  Solving for Uz, Initial residual = 0.112293, Final residual = 0.00474575, No Iterations 2
GAMG:  Solving for p, Initial residual = 0.186914, Final residual = 0.00921434, No Iterations 37
GAMG:  Solving for p, Initial residual = 0.208321, Final residual = 0.00797356, No Iterations 3
GAMG:  Solving for p, Initial residual = 0.05947, Final residual = 0.00294972, No Iterations 9
time step continuity errors : sum local = 2.24269e-05, global = -3.46366e-06, cumulative = 5.76437e-05
smoothSolver:  Solving for epsilon, Initial residual = 0.0183691, Final residual = 0.000296425, No Iterations 1
smoothSolver:  Solving for k, Initial residual = 0.0113197, Final residual = 0.000203705, No Iterations 2
ExecutionTime = 27.6156 s  ClockTime = 28 s

Time = 21s

smoothSolver:  Solving for Ux, Initial residual = 0.013677, Final residual = 0.0003779, No Iterations 2
smoothSolver:  Solving for Uy, Initial residual = 0.0677444, Final residual = 0.00306749, No Iterations 2
smoothSolver:  Solving for Uz, Initial residual = 0.102336, Final residual = 0.00400171, No Iterations 2
GAMG:  Solving for p, Initial residual = 0.160455, Final residual = 0.00787232, No Iterations 22
GAMG:  Solving for p, Initial residual = 0.278919, Final residual = 0.0122144, No Iterations 3
GAMG:  Solving for p, Initial residual = 0.0760734, Final residual = 0.00369216, No Iterations 9
time step continuity errors : sum local = 1.59027e-05, global = 2.45415e-06, cumulative = 6.00978e-05
smoothSolver:  Solving for epsilon, Initial residual = 0.0184059, Final residual = 0.000290613, No Iterations 1
smoothSolver:  Solving for k, Initial residual = 0.0109389, Final residual = 0.00103143, No Iterations 1
ExecutionTime = 28.5527 s  ClockTime = 29 s

Time = 22s

smoothSolver:  Solving for Ux, Initial residual = 0.0107874, Final residual = 0.000376066, No Iterations 2
smoothSolver:  Solving for Uy, Initial residual = 0.0634447, Final residual = 0.00302437, No Iterations 2
smoothSolver:  Solving for Uz, Initial residual = 0.0929608, Final residual = 0.0039699, No Iterations 2
GAMG:  Solving for p, Initial residual = 0.162816, Final residual = 0.00778061, No Iterations 24
GAMG:  Solving for p, Initial residual = 0.177716, Final residual = 0.00839393, No Iterations 3
GAMG:  Solving for p, Initial residual = 0.0538058, Final residual = 0.00242155, No Iterations 13
time step continuity errors : sum local = 1.18682e-05, global = 1.84974e-06, cumulative = 6.19476e-05
smoothSolver:  Solving for epsilon, Initial residual = 0.0183608, Final residual = 0.000273415, No Iterations 1
smoothSolver:  Solving for k, Initial residual = 0.00990834, Final residual = 0.000961555, No Iterations 1
ExecutionTime = 29.5966 s  ClockTime = 30 s

Time = 23s

smoothSolver:  Solving for Ux, Initial residual = 0.009557, Final residual = 0.00037918, No Iterations 2
smoothSolver:  Solving for Uy, Initial residual = 0.0622382, Final residual = 0.0029682, No Iterations 2
smoothSolver:  Solving for Uz, Initial residual = 0.0888068, Final residual = 0.0040693, No Iterations 2
GAMG:  Solving for p, Initial residual = 0.193441, Final residual = 0.00905197, No Iterations 29
GAMG:  Solving for p, Initial residual = 0.218289, Final residual = 0.0095276, No Iterations 3
GAMG:  Solving for p, Initial residual = 0.0658841, Final residual = 0.00319367, No Iterations 13
time step continuity errors : sum local = 1.31415e-05, global = 2.28242e-06, cumulative = 6.423e-05
smoothSolver:  Solving for epsilon, Initial residual = 0.0182541, Final residual = 0.000259162, No Iterations 1
smoothSolver:  Solving for k, Initial residual = 0.00931466, Final residual = 0.000896752, No Iterations 1
ExecutionTime = 30.719 s  ClockTime = 31 s

Time = 24s

smoothSolver:  Solving for Ux, Initial residual = 0.00937659, Final residual = 0.000378825, No Iterations 2
smoothSolver:  Solving for Uy, Initial residual = 0.0567732, Final residual = 0.00283286, No Iterations 2
smoothSolver:  Solving for Uz, Initial residual = 0.0895965, Final residual = 0.00388319, No Iterations 2
GAMG:  Solving for p, Initial residual = 0.247535, Final residual = 0.011733, No Iterations 20
GAMG:  Solving for p, Initial residual = 0.206282, Final residual = 0.0096661, No Iterations 3
GAMG:  Solving for p, Initial residual = 0.0630779, Final residual = 0.00307688, No Iterations 12
time step continuity errors : sum local = 1.1856e-05, global = 2.31725e-06, cumulative = 6.65472e-05
smoothSolver:  Solving for epsilon, Initial residual = 0.0183294, Final residual = 0.000255383, No Iterations 1
smoothSolver:  Solving for k, Initial residual = 0.00912409, Final residual = 0.000861117, No Iterations 1
ExecutionTime = 31.6697 s  ClockTime = 32 s

Time = 25s

smoothSolver:  Solving for Ux, Initial residual = 0.00819127, Final residual = 0.000343857, No Iterations 2
smoothSolver:  Solving for Uy, Initial residual = 0.0522332, Final residual = 0.00259078, No Iterations 2
smoothSolver:  Solving for Uz, Initial residual = 0.0884025, Final residual = 0.0036986, No Iterations 2
GAMG:  Solving for p, Initial residual = 0.228704, Final residual = 0.0108101, No Iterations 20
GAMG:  Solving for p, Initial residual = 0.135014, Final residual = 0.00540824, No Iterations 4
GAMG:  Solving for p, Initial residual = 0.0411642, Final residual = 0.00187936, No Iterations 14
time step continuity errors : sum local = 8.42439e-06, global = -1.21761e-06, cumulative = 6.53296e-05
smoothSolver:  Solving for epsilon, Initial residual = 0.0186594, Final residual = 0.000260741, No Iterations 1
smoothSolver:  Solving for k, Initial residual = 0.00856159, Final residual = 0.000824012, No Iterations 1
ExecutionTime = 32.671 s  ClockTime = 33 s

Time = 26s

smoothSolver:  Solving for Ux, Initial residual = 0.00815219, Final residual = 0.00031344, No Iterations 2
smoothSolver:  Solving for Uy, Initial residual = 0.0517842, Final residual = 0.0025055, No Iterations 2
smoothSolver:  Solving for Uz, Initial residual = 0.083459, Final residual = 0.00339821, No Iterations 2
GAMG:  Solving for p, Initial residual = 0.174728, Final residual = 0.00871562, No Iterations 21
GAMG:  Solving for p, Initial residual = 0.129679, Final residual = 0.00582335, No Iterations 4
GAMG:  Solving for p, Initial residual = 0.041831, Final residual = 0.0018868, No Iterations 18
time step continuity errors : sum local = 7.66789e-06, global = -1.20136e-06, cumulative = 6.41283e-05
smoothSolver:  Solving for epsilon, Initial residual = 0.0190736, Final residual = 0.000268488, No Iterations 1
smoothSolver:  Solving for k, Initial residual = 0.00806088, Final residual = 0.000790093, No Iterations 1
ExecutionTime = 33.7565 s  ClockTime = 34 s

Time = 27s

smoothSolver:  Solving for Ux, Initial residual = 0.00775167, Final residual = 0.000298829, No Iterations 2
smoothSolver:  Solving for Uy, Initial residual = 0.0530603, Final residual = 0.00255356, No Iterations 2
smoothSolver:  Solving for Uz, Initial residual = 0.0793785, Final residual = 0.00332344, No Iterations 2
GAMG:  Solving for p, Initial residual = 0.155258, Final residual = 0.00730831, No Iterations 18
GAMG:  Solving for p, Initial residual = 0.169218, Final residual = 0.00818944, No Iterations 3
GAMG:  Solving for p, Initial residual = 0.0523525, Final residual = 0.00258984, No Iterations 14
time step continuity errors : sum local = 9.41824e-06, global = -1.509e-06, cumulative = 6.26193e-05
smoothSolver:  Solving for epsilon, Initial residual = 0.0194411, Final residual = 0.000273453, No Iterations 1
smoothSolver:  Solving for k, Initial residual = 0.00785086, Final residual = 0.000761023, No Iterations 1
ExecutionTime = 34.7059 s  ClockTime = 35 s

Time = 28s

smoothSolver:  Solving for Ux, Initial residual = 0.00656471, Final residual = 0.000284316, No Iterations 2
smoothSolver:  Solving for Uy, Initial residual = 0.0543603, Final residual = 0.00263294, No Iterations 2
smoothSolver:  Solving for Uz, Initial residual = 0.0779053, Final residual = 0.00339169, No Iterations 2
GAMG:  Solving for p, Initial residual = 0.153131, Final residual = 0.00707161, No Iterations 15
GAMG:  Solving for p, Initial residual = 0.172339, Final residual = 0.00782347, No Iterations 3
GAMG:  Solving for p, Initial residual = 0.0507752, Final residual = 0.00217163, No Iterations 11
time step continuity errors : sum local = 7.17452e-06, global = 1.09437e-06, cumulative = 6.37136e-05
smoothSolver:  Solving for epsilon, Initial residual = 0.0196932, Final residual = 0.00027227, No Iterations 1
smoothSolver:  Solving for k, Initial residual = 0.0076792, Final residual = 0.00073182, No Iterations 1
ExecutionTime = 35.5532 s  ClockTime = 36 s

Time = 29s

smoothSolver:  Solving for Ux, Initial residual = 0.00575498, Final residual = 0.000274042, No Iterations 2
smoothSolver:  Solving for Uy, Initial residual = 0.0519862, Final residual = 0.00261939, No Iterations 2
smoothSolver:  Solving for Uz, Initial residual = 0.0756073, Final residual = 0.00317048, No Iterations 2
GAMG:  Solving for p, Initial residual = 0.148083, Final residual = 0.0066088, No Iterations 19
GAMG:  Solving for p, Initial residual = 0.122451, Final residual = 0.00590806, No Iterations 4
GAMG:  Solving for p, Initial residual = 0.0394628, Final residual = 0.00195358, No Iterations 16
time step continuity errors : sum local = 5.62141e-06, global = 8.36209e-07, cumulative = 6.45498e-05
smoothSolver:  Solving for epsilon, Initial residual = 0.0199219, Final residual = 0.000269476, No Iterations 1
smoothSolver:  Solving for k, Initial residual = 0.00736201, Final residual = 0.00070148, No Iterations 1
ExecutionTime = 36.5759 s  ClockTime = 37 s

Time = 30s

smoothSolver:  Solving for Ux, Initial residual = 0.00555018, Final residual = 0.000269535, No Iterations 2
smoothSolver:  Solving for Uy, Initial residual = 0.0468613, Final residual = 0.0025235, No Iterations 2
smoothSolver:  Solving for Uz, Initial residual = 0.0720509, Final residual = 0.00299196, No Iterations 2
GAMG:  Solving for p, Initial residual = 0.147847, Final residual = 0.00734824, No Iterations 16
GAMG:  Solving for p, Initial residual = 0.118374, Final residual = 0.00577894, No Iterations 5
GAMG:  Solving for p, Initial residual = 0.0431759, Final residual = 0.00203096, No Iterations 20
time step continuity errors : sum local = 5.57478e-06, global = 8.99881e-07, cumulative = 6.54497e-05
smoothSolver:  Solving for epsilon, Initial residual = 0.0200483, Final residual = 0.000266342, No Iterations 1
smoothSolver:  Solving for k, Initial residual = 0.00713077, Final residual = 0.00067593, No Iterations 1
ExecutionTime = 37.6281 s  ClockTime = 38 s

Time = 31s

smoothSolver:  Solving for Ux, Initial residual = 0.00515746, Final residual = 0.000258311, No Iterations 2
smoothSolver:  Solving for Uy, Initial residual = 0.042745, Final residual = 0.0024091, No Iterations 2
smoothSolver:  Solving for Uz, Initial residual = 0.0696101, Final residual = 0.002933, No Iterations 2
GAMG:  Solving for p, Initial residual = 0.151085, Final residual = 0.0071616, No Iterations 14
GAMG:  Solving for p, Initial residual = 0.128589, Final residual = 0.00567131, No Iterations 4
GAMG:  Solving for p, Initial residual = 0.043009, Final residual = 0.00209317, No Iterations 15
time step continuity errors : sum local = 5.94359e-06, global = 1.2542e-06, cumulative = 6.67039e-05
smoothSolver:  Solving for epsilon, Initial residual = 0.0201739, Final residual = 0.000265394, No Iterations 1
smoothSolver:  Solving for k, Initial residual = 0.00677182, Final residual = 0.000653093, No Iterations 1
ExecutionTime = 38.5427 s  ClockTime = 39 s

Time = 32s

smoothSolver:  Solving for Ux, Initial residual = 0.00495495, Final residual = 0.000245288, No Iterations 2
smoothSolver:  Solving for Uy, Initial residual = 0.0411916, Final residual = 0.00231583, No Iterations 2
smoothSolver:  Solving for Uz, Initial residual = 0.0649542, Final residual = 0.002733, No Iterations 2
GAMG:  Solving for p, Initial residual = 0.150545, Final residual = 0.00749202, No Iterations 13
GAMG:  Solving for p, Initial residual = 0.102353, Final residual = 0.00444131, No Iterations 6
GAMG:  Solving for p, Initial residual = 0.0343734, Final residual = 0.00163761, No Iterations 16
time step continuity errors : sum local = 4.43756e-06, global = -6.75119e-07, cumulative = 6.60288e-05
smoothSolver:  Solving for epsilon, Initial residual = 0.0204, Final residual = 0.000269212, No Iterations 1
smoothSolver:  Solving for k, Initial residual = 0.00643688, Final residual = 0.000631496, No Iterations 1
ExecutionTime = 39.4914 s  ClockTime = 40 s

Time = 33s

smoothSolver:  Solving for Ux, Initial residual = 0.00481288, Final residual = 0.000239042, No Iterations 2
smoothSolver:  Solving for Uy, Initial residual = 0.0408768, Final residual = 0.00228694, No Iterations 2
smoothSolver:  Solving for Uz, Initial residual = 0.0607362, Final residual = 0.00262498, No Iterations 2
GAMG:  Solving for p, Initial residual = 0.144919, Final residual = 0.00724427, No Iterations 12
GAMG:  Solving for p, Initial residual = 0.0803001, Final residual = 0.00373203, No Iterations 9
GAMG:  Solving for p, Initial residual = 0.0303907, Final residual = 0.00141147, No Iterations 16
time step continuity errors : sum local = 3.54647e-06, global = -5.10981e-07, cumulative = 6.55178e-05
smoothSolver:  Solving for epsilon, Initial residual = 0.0207298, Final residual = 0.000274848, No Iterations 1
smoothSolver:  Solving for k, Initial residual = 0.00626869, Final residual = 0.000618588, No Iterations 1
ExecutionTime = 40.4735 s  ClockTime = 41 s

Time = 34s

smoothSolver:  Solving for Ux, Initial residual = 0.0044212, Final residual = 0.000228357, No Iterations 2
smoothSolver:  Solving for Uy, Initial residual = 0.0414248, Final residual = 0.00234187, No Iterations 2
smoothSolver:  Solving for Uz, Initial residual = 0.0618202, Final residual = 0.00274958, No Iterations 2
GAMG:  Solving for p, Initial residual = 0.136879, Final residual = 0.00579159, No Iterations 13
GAMG:  Solving for p, Initial residual = 0.101095, Final residual = 0.00460074, No Iterations 4
GAMG:  Solving for p, Initial residual = 0.0326937, Final residual = 0.00146154, No Iterations 15
time step continuity errors : sum local = 3.78067e-06, global = -7.20667e-07, cumulative = 6.47971e-05
smoothSolver:  Solving for epsilon, Initial residual = 0.0210562, Final residual = 0.000280341, No Iterations 1
smoothSolver:  Solving for k, Initial residual = 0.00615609, Final residual = 0.000606278, No Iterations 1
ExecutionTime = 41.3708 s  ClockTime = 42 s

Time = 35s

smoothSolver:  Solving for Ux, Initial residual = 0.00395693, Final residual = 0.000213318, No Iterations 2
smoothSolver:  Solving for Uy, Initial residual = 0.0412186, Final residual = 0.00239757, No Iterations 2
smoothSolver:  Solving for Uz, Initial residual = 0.0625254, Final residual = 0.00274119, No Iterations 2
GAMG:  Solving for p, Initial residual = 0.131193, Final residual = 0.00627011, No Iterations 11
GAMG:  Solving for p, Initial residual = 0.092253, Final residual = 0.0045618, No Iterations 5
GAMG:  Solving for p, Initial residual = 0.0312552, Final residual = 0.0014663, No Iterations 13
time step continuity errors : sum local = 3.86793e-06, global = 7.01904e-07, cumulative = 6.5499e-05
smoothSolver:  Solving for epsilon, Initial residual = 0.0213694, Final residual = 0.000283547, No Iterations 1
smoothSolver:  Solving for k, Initial residual = 0.00597657, Final residual = 0.00059691, No Iterations 1
ExecutionTime = 42.2215 s  ClockTime = 42 s

Time = 36s

smoothSolver:  Solving for Ux, Initial residual = 0.00374233, Final residual = 0.000202304, No Iterations 2
smoothSolver:  Solving for Uy, Initial residual = 0.0385732, Final residual = 0.00236932, No Iterations 2
smoothSolver:  Solving for Uz, Initial residual = 0.0592858, Final residual = 0.00255788, No Iterations 2
GAMG:  Solving for p, Initial residual = 0.12347, Final residual = 0.00524944, No Iterations 11
GAMG:  Solving for p, Initial residual = 0.065488, Final residual = 0.00307078, No Iterations 6
GAMG:  Solving for p, Initial residual = 0.0229355, Final residual = 0.00111356, No Iterations 13
time step continuity errors : sum local = 2.84082e-06, global = 4.69173e-07, cumulative = 6.59682e-05
smoothSolver:  Solving for epsilon, Initial residual = 0.0215913, Final residual = 0.000284277, No Iterations 1
smoothSolver:  Solving for k, Initial residual = 0.00565064, Final residual = 9.08555e-05, No Iterations 2
ExecutionTime = 43.1115 s  ClockTime = 43 s

Time = 37s

smoothSolver:  Solving for Ux, Initial residual = 0.00365536, Final residual = 0.000197302, No Iterations 2
smoothSolver:  Solving for Uy, Initial residual = 0.0365076, Final residual = 0.00232417, No Iterations 2
smoothSolver:  Solving for Uz, Initial residual = 0.0553557, Final residual = 0.00240415, No Iterations 2
GAMG:  Solving for p, Initial residual = 0.114283, Final residual = 0.00560361, No Iterations 11
GAMG:  Solving for p, Initial residual = 0.0573868, Final residual = 0.00261331, No Iterations 8
GAMG:  Solving for p, Initial residual = 0.0222122, Final residual = 0.00104463, No Iterations 15
time step continuity errors : sum local = 2.46699e-06, global = 4.1884e-07, cumulative = 6.63871e-05
smoothSolver:  Solving for epsilon, Initial residual = 0.0217064, Final residual = 0.000284586, No Iterations 1
smoothSolver:  Solving for k, Initial residual = 0.00527908, Final residual = 8.86901e-05, No Iterations 2
ExecutionTime = 44.0559 s  ClockTime = 44 s

Time = 38s

smoothSolver:  Solving for Ux, Initial residual = 0.00346831, Final residual = 0.000192546, No Iterations 2
smoothSolver:  Solving for Uy, Initial residual = 0.0381638, Final residual = 0.00235166, No Iterations 2
smoothSolver:  Solving for Uz, Initial residual = 0.0538849, Final residual = 0.00239524, No Iterations 2
GAMG:  Solving for p, Initial residual = 0.110782, Final residual = 0.0050204, No Iterations 11
GAMG:  Solving for p, Initial residual = 0.0667734, Final residual = 0.00314372, No Iterations 6
GAMG:  Solving for p, Initial residual = 0.0249572, Final residual = 0.00115016, No Iterations 19
time step continuity errors : sum local = 2.53323e-06, global = 4.81991e-07, cumulative = 6.6869e-05
smoothSolver:  Solving for epsilon, Initial residual = 0.0218082, Final residual = 0.000285563, No Iterations 1
smoothSolver:  Solving for k, Initial residual = 0.00510502, Final residual = 8.73726e-05, No Iterations 2
ExecutionTime = 45.0952 s  ClockTime = 45 s

Time = 39s

smoothSolver:  Solving for Ux, Initial residual = 0.00322528, Final residual = 0.000186157, No Iterations 2
smoothSolver:  Solving for Uy, Initial residual = 0.0400799, Final residual = 0.00239638, No Iterations 2
smoothSolver:  Solving for Uz, Initial residual = 0.053555, Final residual = 0.00243217, No Iterations 2
GAMG:  Solving for p, Initial residual = 0.112821, Final residual = 0.00559201, No Iterations 8
GAMG:  Solving for p, Initial residual = 0.0587895, Final residual = 0.00276585, No Iterations 8
GAMG:  Solving for p, Initial residual = 0.0236544, Final residual = 0.0011767, No Iterations 15
time step continuity errors : sum local = 2.48788e-06, global = -5.35574e-07, cumulative = 6.63335e-05
smoothSolver:  Solving for epsilon, Initial residual = 0.0219692, Final residual = 0.000288153, No Iterations 1
smoothSolver:  Solving for k, Initial residual = 0.00494815, Final residual = 8.56977e-05, No Iterations 2
ExecutionTime = 46.031 s  ClockTime = 46 s

Time = 40s

smoothSolver:  Solving for Ux, Initial residual = 0.00308082, Final residual = 0.000179389, No Iterations 2
smoothSolver:  Solving for Uy, Initial residual = 0.0396074, Final residual = 0.00240383, No Iterations 2
smoothSolver:  Solving for Uz, Initial residual = 0.0525769, Final residual = 0.00241304, No Iterations 2
GAMG:  Solving for p, Initial residual = 0.111222, Final residual = 0.00503947, No Iterations 9
GAMG:  Solving for p, Initial residual = 0.0482399, Final residual = 0.00232498, No Iterations 8
GAMG:  Solving for p, Initial residual = 0.0191362, Final residual = 0.000883222, No Iterations 14
time step continuity errors : sum local = 1.83504e-06, global = 3.33109e-07, cumulative = 6.66666e-05
smoothSolver:  Solving for epsilon, Initial residual = 0.0221606, Final residual = 0.000291277, No Iterations 1
smoothSolver:  Solving for k, Initial residual = 0.00474765, Final residual = 8.38185e-05, No Iterations 2
ExecutionTime = 46.9597 s  ClockTime = 47 s

Time = 41s

smoothSolver:  Solving for Ux, Initial residual = 0.00292, Final residual = 0.000169606, No Iterations 2
smoothSolver:  Solving for Uy, Initial residual = 0.0377079, Final residual = 0.00238488, No Iterations 2
smoothSolver:  Solving for Uz, Initial residual = 0.0505568, Final residual = 0.00234486, No Iterations 2
GAMG:  Solving for p, Initial residual = 0.105231, Final residual = 0.00518592, No Iterations 9
GAMG:  Solving for p, Initial residual = 0.0522169, Final residual = 0.0023462, No Iterations 8
GAMG:  Solving for p, Initial residual = 0.0202062, Final residual = 0.000863221, No Iterations 12
time step continuity errors : sum local = 1.84682e-06, global = 2.59297e-07, cumulative = 6.69259e-05
smoothSolver:  Solving for epsilon, Initial residual = 0.0223513, Final residual = 0.000293114, No Iterations 1
smoothSolver:  Solving for k, Initial residual = 0.00452162, Final residual = 8.23e-05, No Iterations 2
ExecutionTime = 47.8381 s  ClockTime = 48 s

Time = 42s

smoothSolver:  Solving for Ux, Initial residual = 0.00276443, Final residual = 0.000160769, No Iterations 2
smoothSolver:  Solving for Uy, Initial residual = 0.0362813, Final residual = 0.00237467, No Iterations 2
smoothSolver:  Solving for Uz, Initial residual = 0.04773, Final residual = 0.00229405, No Iterations 2
GAMG:  Solving for p, Initial residual = 0.100003, Final residual = 0.00464782, No Iterations 8
GAMG:  Solving for p, Initial residual = 0.056621, Final residual = 0.00249064, No Iterations 5
GAMG:  Solving for p, Initial residual = 0.0196507, Final residual = 0.000920168, No Iterations 10
time step continuity errors : sum local = 2.01792e-06, global = 3.21558e-07, cumulative = 6.72474e-05
smoothSolver:  Solving for epsilon, Initial residual = 0.0225118, Final residual = 0.000295235, No Iterations 1
smoothSolver:  Solving for k, Initial residual = 0.00430015, Final residual = 8.06698e-05, No Iterations 2
ExecutionTime = 48.5925 s  ClockTime = 49 s

Time = 43s

smoothSolver:  Solving for Ux, Initial residual = 0.00262692, Final residual = 0.000154791, No Iterations 2
smoothSolver:  Solving for Uy, Initial residual = 0.0365329, Final residual = 0.00237737, No Iterations 2
smoothSolver:  Solving for Uz, Initial residual = 0.0446622, Final residual = 0.00220978, No Iterations 2
GAMG:  Solving for p, Initial residual = 0.0955114, Final residual = 0.00407342, No Iterations 9
GAMG:  Solving for p, Initial residual = 0.0491476, Final residual = 0.0024343, No Iterations 4
GAMG:  Solving for p, Initial residual = 0.0166783, Final residual = 0.000731009, No Iterations 12
time step continuity errors : sum local = 1.58668e-06, global = -2.70558e-07, cumulative = 6.69769e-05
smoothSolver:  Solving for epsilon, Initial residual = 0.0226647, Final residual = 0.000296937, No Iterations 1
smoothSolver:  Solving for k, Initial residual = 0.00411967, Final residual = 7.92342e-05, No Iterations 2
ExecutionTime = 49.3794 s  ClockTime = 50 s

Time = 44s

smoothSolver:  Solving for Ux, Initial residual = 0.00248992, Final residual = 0.000150647, No Iterations 2
smoothSolver:  Solving for Uy, Initial residual = 0.0376029, Final residual = 0.00238814, No Iterations 2
smoothSolver:  Solving for Uz, Initial residual = 0.0431982, Final residual = 0.00211463, No Iterations 2
GAMG:  Solving for p, Initial residual = 0.0892976, Final residual = 0.00378136, No Iterations 9
GAMG:  Solving for p, Initial residual = 0.0402951, Final residual = 0.00177965, No Iterations 6
GAMG:  Solving for p, Initial residual = 0.0144079, Final residual = 0.000710499, No Iterations 10
time step continuity errors : sum local = 1.48449e-06, global = -1.83404e-07, cumulative = 6.67935e-05
smoothSolver:  Solving for epsilon, Initial residual = 0.022759, Final residual = 0.000298238, No Iterations 1
smoothSolver:  Solving for k, Initial residual = 0.00396925, Final residual = 7.74236e-05, No Iterations 2
ExecutionTime = 50.1656 s  ClockTime = 50 s

Time = 45s

smoothSolver:  Solving for Ux, Initial residual = 0.00232935, Final residual = 0.000146371, No Iterations 2
smoothSolver:  Solving for Uy, Initial residual = 0.0379859, Final residual = 0.00239311, No Iterations 2
smoothSolver:  Solving for Uz, Initial residual = 0.0433886, Final residual = 0.00209171, No Iterations 2
GAMG:  Solving for p, Initial residual = 0.0832052, Final residual = 0.00341752, No Iterations 8
GAMG:  Solving for p, Initial residual = 0.0420527, Final residual = 0.00186983, No Iterations 5
GAMG:  Solving for p, Initial residual = 0.0150392, Final residual = 0.000683106, No Iterations 10
time step continuity errors : sum local = 1.35223e-06, global = -2.24235e-07, cumulative = 6.65692e-05
smoothSolver:  Solving for epsilon, Initial residual = 0.0228343, Final residual = 0.00029889, No Iterations 1
smoothSolver:  Solving for k, Initial residual = 0.00382819, Final residual = 7.56458e-05, No Iterations 2
ExecutionTime = 50.9178 s  ClockTime = 51 s

Time = 46s

smoothSolver:  Solving for Ux, Initial residual = 0.00218028, Final residual = 0.000141284, No Iterations 2
smoothSolver:  Solving for Uy, Initial residual = 0.0367282, Final residual = 0.00236941, No Iterations 2
smoothSolver:  Solving for Uz, Initial residual = 0.0427334, Final residual = 0.00207839, No Iterations 2
GAMG:  Solving for p, Initial residual = 0.0810976, Final residual = 0.00401586, No Iterations 7
GAMG:  Solving for p, Initial residual = 0.0405798, Final residual = 0.00180475, No Iterations 6
GAMG:  Solving for p, Initial residual = 0.0152137, Final residual = 0.000690881, No Iterations 14
time step continuity errors : sum local = 1.31197e-06, global = 1.95746e-07, cumulative = 6.6765e-05
smoothSolver:  Solving for epsilon, Initial residual = 0.0229035, Final residual = 0.000301323, No Iterations 1
smoothSolver:  Solving for k, Initial residual = 0.00366118, Final residual = 7.38079e-05, No Iterations 2
ExecutionTime = 51.7396 s  ClockTime = 52 s

Time = 47s

smoothSolver:  Solving for Ux, Initial residual = 0.00209521, Final residual = 0.000136366, No Iterations 2
smoothSolver:  Solving for Uy, Initial residual = 0.0343001, Final residual = 0.00231885, No Iterations 2
smoothSolver:  Solving for Uz, Initial residual = 0.0407749, Final residual = 0.00203609, No Iterations 2
GAMG:  Solving for p, Initial residual = 0.0803575, Final residual = 0.00346472, No Iterations 9
GAMG:  Solving for p, Initial residual = 0.0374597, Final residual = 0.00169092, No Iterations 6
GAMG:  Solving for p, Initial residual = 0.0136652, Final residual = 0.000646121, No Iterations 14
time step continuity errors : sum local = 1.20071e-06, global = 1.78305e-07, cumulative = 6.69433e-05
smoothSolver:  Solving for epsilon, Initial residual = 0.0229899, Final residual = 0.0003026, No Iterations 1
smoothSolver:  Solving for k, Initial residual = 0.00352643, Final residual = 7.21761e-05, No Iterations 2
ExecutionTime = 52.596 s  ClockTime = 53 s

Time = 48s

smoothSolver:  Solving for Ux, Initial residual = 0.0020289, Final residual = 0.000131439, No Iterations 2
smoothSolver:  Solving for Uy, Initial residual = 0.032683, Final residual = 0.00226725, No Iterations 2
smoothSolver:  Solving for Uz, Initial residual = 0.0390225, Final residual = 0.0019933, No Iterations 2
GAMG:  Solving for p, Initial residual = 0.0768685, Final residual = 0.00323619, No Iterations 9
GAMG:  Solving for p, Initial residual = 0.0345816, Final residual = 0.00169448, No Iterations 6
GAMG:  Solving for p, Initial residual = 0.0128598, Final residual = 0.000619246, No Iterations 12
time step continuity errors : sum local = 1.15827e-06, global = 1.33234e-07, cumulative = 6.70765e-05
smoothSolver:  Solving for epsilon, Initial residual = 0.0230789, Final residual = 0.000304316, No Iterations 1
smoothSolver:  Solving for k, Initial residual = 0.00341539, Final residual = 7.06689e-05, No Iterations 2
ExecutionTime = 53.4167 s  ClockTime = 54 s

Time = 49s

smoothSolver:  Solving for Ux, Initial residual = 0.00193092, Final residual = 0.000126495, No Iterations 2
smoothSolver:  Solving for Uy, Initial residual = 0.032159, Final residual = 0.00223698, No Iterations 2
smoothSolver:  Solving for Uz, Initial residual = 0.0374326, Final residual = 0.00195826, No Iterations 2
GAMG:  Solving for p, Initial residual = 0.0715277, Final residual = 0.00292461, No Iterations 8
GAMG:  Solving for p, Initial residual = 0.037049, Final residual = 0.00147435, No Iterations 5
GAMG:  Solving for p, Initial residual = 0.0131654, Final residual = 0.000650973, No Iterations 6
time step continuity errors : sum local = 1.22418e-06, global = 1.59971e-07, cumulative = 6.72365e-05
smoothSolver:  Solving for epsilon, Initial residual = 0.023181, Final residual = 0.000306551, No Iterations 1
smoothSolver:  Solving for k, Initial residual = 0.00329864, Final residual = 6.92998e-05, No Iterations 2
bounding k, min: -0.0181711 max: 4.66072 average: 0.867524
ExecutionTime = 54.1057 s  ClockTime = 54 s

Time = 50s

smoothSolver:  Solving for Ux, Initial residual = 0.00180363, Final residual = 0.000121912, No Iterations 2
smoothSolver:  Solving for Uy, Initial residual = 0.031819, Final residual = 0.002221, No Iterations 2
smoothSolver:  Solving for Uz, Initial residual = 0.0354491, Final residual = 0.00191132, No Iterations 2
GAMG:  Solving for p, Initial residual = 0.0673032, Final residual = 0.00262172, No Iterations 9
GAMG:  Solving for p, Initial residual = 0.0365495, Final residual = 0.00144411, No Iterations 4
GAMG:  Solving for p, Initial residual = 0.0123984, Final residual = 0.000548162, No Iterations 6
time step continuity errors : sum local = 1.02107e-06, global = -1.13286e-07, cumulative = 6.71232e-05
smoothSolver:  Solving for epsilon, Initial residual = 0.0232822, Final residual = 0.000308216, No Iterations 1
smoothSolver:  Solving for k, Initial residual = 0.00319658, Final residual = 6.7719e-05, No Iterations 2
ExecutionTime = 54.7911 s  ClockTime = 55 s

Time = 51s

smoothSolver:  Solving for Ux, Initial residual = 0.00168446, Final residual = 0.000117963, No Iterations 2
smoothSolver:  Solving for Uy, Initial residual = 0.0306786, Final residual = 0.00219601, No Iterations 2
smoothSolver:  Solving for Uz, Initial residual = 0.0334673, Final residual = 0.00185909, No Iterations 2
GAMG:  Solving for p, Initial residual = 0.0637908, Final residual = 0.00296715, No Iterations 8
GAMG:  Solving for p, Initial residual = 0.0339813, Final residual = 0.00129586, No Iterations 5
GAMG:  Solving for p, Initial residual = 0.0116586, Final residual = 0.000530717, No Iterations 6
time step continuity errors : sum local = 9.71774e-07, global = -1.00466e-07, cumulative = 6.70227e-05
smoothSolver:  Solving for epsilon, Initial residual = 0.0233763, Final residual = 0.000309769, No Iterations 1
smoothSolver:  Solving for k, Initial residual = 0.00307136, Final residual = 6.62456e-05, No Iterations 2
ExecutionTime = 55.4746 s  ClockTime = 56 s

Time = 52s

smoothSolver:  Solving for Ux, Initial residual = 0.00159491, Final residual = 0.000114681, No Iterations 2
smoothSolver:  Solving for Uy, Initial residual = 0.0289329, Final residual = 0.00216003, No Iterations 2
smoothSolver:  Solving for Uz, Initial residual = 0.0319378, Final residual = 0.00180501, No Iterations 2
GAMG:  Solving for p, Initial residual = 0.0596643, Final residual = 0.00294765, No Iterations 7
GAMG:  Solving for p, Initial residual = 0.0328117, Final residual = 0.00150216, No Iterations 4
GAMG:  Solving for p, Initial residual = 0.011027, Final residual = 0.000519975, No Iterations 8
time step continuity errors : sum local = 9.29361e-07, global = -8.11185e-08, cumulative = 6.69416e-05
smoothSolver:  Solving for epsilon, Initial residual = 0.0234368, Final residual = 0.000311443, No Iterations 1
smoothSolver:  Solving for k, Initial residual = 0.00294949, Final residual = 6.46375e-05, No Iterations 2
ExecutionTime = 56.1574 s  ClockTime = 56 s

Time = 53s

smoothSolver:  Solving for Ux, Initial residual = 0.00153301, Final residual = 0.000111696, No Iterations 2
smoothSolver:  Solving for Uy, Initial residual = 0.0275988, Final residual = 0.0021333, No Iterations 2
smoothSolver:  Solving for Uz, Initial residual = 0.0306208, Final residual = 0.00175048, No Iterations 2
GAMG:  Solving for p, Initial residual = 0.0550622, Final residual = 0.00263902, No Iterations 7
GAMG:  Solving for p, Initial residual = 0.0324378, Final residual = 0.00137288, No Iterations 4
GAMG:  Solving for p, Initial residual = 0.011129, Final residual = 0.000506781, No Iterations 6
time step continuity errors : sum local = 8.90998e-07, global = 1.13156e-07, cumulative = 6.70548e-05
smoothSolver:  Solving for epsilon, Initial residual = 0.023508, Final residual = 0.000312724, No Iterations 1
smoothSolver:  Solving for k, Initial residual = 0.00284739, Final residual = 6.31515e-05, No Iterations 2
bounding k, min: -0.0653079 max: 4.67082 average: 0.872959
ExecutionTime = 56.8142 s  ClockTime = 57 s

Time = 54s

smoothSolver:  Solving for Ux, Initial residual = 0.00147495, Final residual = 0.000108533, No Iterations 2
smoothSolver:  Solving for Uy, Initial residual = 0.0271659, Final residual = 0.0021301, No Iterations 2
smoothSolver:  Solving for Uz, Initial residual = 0.0294379, Final residual = 0.00169583, No Iterations 2
GAMG:  Solving for p, Initial residual = 0.0519131, Final residual = 0.00210526, No Iterations 9
GAMG:  Solving for p, Initial residual = 0.0328999, Final residual = 0.00162812, No Iterations 3
GAMG:  Solving for p, Initial residual = 0.0110218, Final residual = 0.000443003, No Iterations 9
time step continuity errors : sum local = 7.65186e-07, global = 9.12031e-08, cumulative = 6.7146e-05
smoothSolver:  Solving for epsilon, Initial residual = 0.0235654, Final residual = 0.000313671, No Iterations 1
smoothSolver:  Solving for k, Initial residual = 0.00275375, Final residual = 6.165e-05, No Iterations 2
ExecutionTime = 57.5322 s  ClockTime = 58 s

Time = 55s

smoothSolver:  Solving for Ux, Initial residual = 0.00140696, Final residual = 0.000104874, No Iterations 2
smoothSolver:  Solving for Uy, Initial residual = 0.0273795, Final residual = 0.00214782, No Iterations 2
smoothSolver:  Solving for Uz, Initial residual = 0.0282655, Final residual = 0.00166386, No Iterations 2
GAMG:  Solving for p, Initial residual = 0.0502809, Final residual = 0.00201857, No Iterations 9
GAMG:  Solving for p, Initial residual = 0.0309002, Final residual = 0.00129526, No Iterations 4
GAMG:  Solving for p, Initial residual = 0.0105434, Final residual = 0.000485627, No Iterations 12
time step continuity errors : sum local = 8.32474e-07, global = 9.63237e-08, cumulative = 6.72423e-05
smoothSolver:  Solving for epsilon, Initial residual = 0.0236379, Final residual = 0.000314691, No Iterations 1
smoothSolver:  Solving for k, Initial residual = 0.00265882, Final residual = 6.01268e-05, No Iterations 2
ExecutionTime = 58.3181 s  ClockTime = 59 s

Time = 56s

smoothSolver:  Solving for Ux, Initial residual = 0.00133525, Final residual = 0.000101334, No Iterations 2
smoothSolver:  Solving for Uy, Initial residual = 0.0274747, Final residual = 0.00216424, No Iterations 2
smoothSolver:  Solving for Uz, Initial residual = 0.0275437, Final residual = 0.00164557, No Iterations 2
GAMG:  Solving for p, Initial residual = 0.0478868, Final residual = 0.0021148, No Iterations 8
GAMG:  Solving for p, Initial residual = 0.0299325, Final residual = 0.00139219, No Iterations 4
GAMG:  Solving for p, Initial residual = 0.0108456, Final residual = 0.000534347, No Iterations 7
time step continuity errors : sum local = 9.08864e-07, global = 1.36877e-07, cumulative = 6.73792e-05
smoothSolver:  Solving for epsilon, Initial residual = 0.0237089, Final residual = 0.00031574, No Iterations 1
smoothSolver:  Solving for k, Initial residual = 0.00256499, Final residual = 5.87661e-05, No Iterations 2
bounding k, min: -0.0355572 max: 4.63548 average: 0.87644
ExecutionTime = 59.007 s  ClockTime = 59 s

Time = 57s

smoothSolver:  Solving for Ux, Initial residual = 0.00126973, Final residual = 9.83897e-05, No Iterations 2
smoothSolver:  Solving for Uy, Initial residual = 0.0269952, Final residual = 0.00216464, No Iterations 2
smoothSolver:  Solving for Uz, Initial residual = 0.0267718, Final residual = 0.00161728, No Iterations 2
GAMG:  Solving for p, Initial residual = 0.0435007, Final residual = 0.00176868, No Iterations 9
GAMG:  Solving for p, Initial residual = 0.0289132, Final residual = 0.00139771, No Iterations 3
GAMG:  Solving for p, Initial residual = 0.00991049, Final residual = 0.000454855, No Iterations 8
time step continuity errors : sum local = 7.70819e-07, global = 1.30095e-07, cumulative = 6.75093e-05
smoothSolver:  Solving for epsilon, Initial residual = 0.023776, Final residual = 0.000316908, No Iterations 1
smoothSolver:  Solving for k, Initial residual = 0.00247193, Final residual = 5.74151e-05, No Iterations 2
ExecutionTime = 59.7084 s  ClockTime = 60 s

Time = 58s

smoothSolver:  Solving for Ux, Initial residual = 0.00122123, Final residual = 9.61766e-05, No Iterations 2
smoothSolver:  Solving for Uy, Initial residual = 0.0261372, Final residual = 0.00215281, No Iterations 2
smoothSolver:  Solving for Uz, Initial residual = 0.0253674, Final residual = 0.00157622, No Iterations 2
GAMG:  Solving for p, Initial residual = 0.0398302, Final residual = 0.00161046, No Iterations 9
GAMG:  Solving for p, Initial residual = 0.0277478, Final residual = 0.00128629, No Iterations 3
GAMG:  Solving for p, Initial residual = 0.00930808, Final residual = 0.00042546, No Iterations 7
time step continuity errors : sum local = 7.12207e-07, global = -7.41661e-08, cumulative = 6.74351e-05
smoothSolver:  Solving for epsilon, Initial residual = 0.0238345, Final residual = 0.000318412, No Iterations 1
smoothSolver:  Solving for k, Initial residual = 0.0023867, Final residual = 5.58029e-05, No Iterations 2
ExecutionTime = 60.3913 s  ClockTime = 61 s

Time = 59s

smoothSolver:  Solving for Ux, Initial residual = 0.00118179, Final residual = 9.42167e-05, No Iterations 2
smoothSolver:  Solving for Uy, Initial residual = 0.0252618, Final residual = 0.00213678, No Iterations 2
smoothSolver:  Solving for Uz, Initial residual = 0.0235555, Final residual = 0.00152935, No Iterations 2
GAMG:  Solving for p, Initial residual = 0.0374407, Final residual = 0.00167512, No Iterations 8
GAMG:  Solving for p, Initial residual = 0.027224, Final residual = 0.00126126, No Iterations 3
GAMG:  Solving for p, Initial residual = 0.00910332, Final residual = 0.000440607, No Iterations 6
time step continuity errors : sum local = 7.27936e-07, global = -8.43433e-08, cumulative = 6.73508e-05
smoothSolver:  Solving for epsilon, Initial residual = 0.0238867, Final residual = 0.000319516, No Iterations 1
smoothSolver:  Solving for k, Initial residual = 0.00231103, Final residual = 5.44371e-05, No Iterations 2
bounding k, min: -0.134556 max: 4.59176 average: 0.879367
ExecutionTime = 61.0452 s  ClockTime = 61 s

Time = 60s

smoothSolver:  Solving for Ux, Initial residual = 0.00114344, Final residual = 9.21027e-05, No Iterations 2
smoothSolver:  Solving for Uy, Initial residual = 0.0247356, Final residual = 0.00212667, No Iterations 2
smoothSolver:  Solving for Uz, Initial residual = 0.0219936, Final residual = 0.00148388, No Iterations 2
GAMG:  Solving for p, Initial residual = 0.0351189, Final residual = 0.00150597, No Iterations 8
GAMG:  Solving for p, Initial residual = 0.0279903, Final residual = 0.00118974, No Iterations 3
GAMG:  Solving for p, Initial residual = 0.00921463, Final residual = 0.000410004, No Iterations 6
time step continuity errors : sum local = 6.71322e-07, global = -8.28717e-08, cumulative = 6.72679e-05
smoothSolver:  Solving for epsilon, Initial residual = 0.023935, Final residual = 0.000320951, No Iterations 1
smoothSolver:  Solving for k, Initial residual = 0.00224007, Final residual = 5.28889e-05, No Iterations 2
ExecutionTime = 61.6941 s  ClockTime = 62 s

Time = 61s

smoothSolver:  Solving for Ux, Initial residual = 0.00110362, Final residual = 8.9779e-05, No Iterations 2
smoothSolver:  Solving for Uy, Initial residual = 0.0246713, Final residual = 0.00212784, No Iterations 2
smoothSolver:  Solving for Uz, Initial residual = 0.0211875, Final residual = 0.00144448, No Iterations 2
GAMG:  Solving for p, Initial residual = 0.0321936, Final residual = 0.00140457, No Iterations 9
GAMG:  Solving for p, Initial residual = 0.0285998, Final residual = 0.00118844, No Iterations 3
GAMG:  Solving for p, Initial residual = 0.00939314, Final residual = 0.000465753, No Iterations 5
time step continuity errors : sum local = 7.59114e-07, global = 7.52142e-08, cumulative = 6.73431e-05
smoothSolver:  Solving for epsilon, Initial residual = 0.0239775, Final residual = 0.000321906, No Iterations 1
smoothSolver:  Solving for k, Initial residual = 0.00216916, Final residual = 5.14927e-05, No Iterations 2
ExecutionTime = 62.3415 s  ClockTime = 63 s

Time = 62s

smoothSolver:  Solving for Ux, Initial residual = 0.00106604, Final residual = 8.74465e-05, No Iterations 2
smoothSolver:  Solving for Uy, Initial residual = 0.0247258, Final residual = 0.00213566, No Iterations 2
smoothSolver:  Solving for Uz, Initial residual = 0.0207315, Final residual = 0.00141448, No Iterations 2
GAMG:  Solving for p, Initial residual = 0.0296761, Final residual = 0.00141916, No Iterations 9
GAMG:  Solving for p, Initial residual = 0.0285549, Final residual = 0.00121288, No Iterations 3
GAMG:  Solving for p, Initial residual = 0.00940722, Final residual = 0.000467971, No Iterations 6
time step continuity errors : sum local = 7.60235e-07, global = -1.29784e-07, cumulative = 6.72133e-05
smoothSolver:  Solving for epsilon, Initial residual = 0.0240169, Final residual = 0.000322966, No Iterations 1
smoothSolver:  Solving for k, Initial residual = 0.00210468, Final residual = 5.006e-05, No Iterations 2
ExecutionTime = 63.0112 s  ClockTime = 63 s

Time = 63s

smoothSolver:  Solving for Ux, Initial residual = 0.00103453, Final residual = 8.52831e-05, No Iterations 2
smoothSolver:  Solving for Uy, Initial residual = 0.0245656, Final residual = 0.00214216, No Iterations 2
smoothSolver:  Solving for Uz, Initial residual = 0.020128, Final residual = 0.00138627, No Iterations 2
GAMG:  Solving for p, Initial residual = 0.0281071, Final residual = 0.00132892, No Iterations 9
GAMG:  Solving for p, Initial residual = 0.0282112, Final residual = 0.00115052, No Iterations 3
GAMG:  Solving for p, Initial residual = 0.00920772, Final residual = 0.000417366, No Iterations 7
time step continuity errors : sum local = 6.75266e-07, global = 8.31963e-08, cumulative = 6.72965e-05
smoothSolver:  Solving for epsilon, Initial residual = 0.0240554, Final residual = 0.000324022, No Iterations 1
smoothSolver:  Solving for k, Initial residual = 0.00204377, Final residual = 4.87602e-05, No Iterations 2
bounding k, min: -0.170155 max: 4.53987 average: 0.88273
ExecutionTime = 63.7043 s  ClockTime = 64 s

Time = 64s

smoothSolver:  Solving for Ux, Initial residual = 0.00101366, Final residual = 8.34905e-05, No Iterations 2
smoothSolver:  Solving for Uy, Initial residual = 0.0240848, Final residual = 0.00214031, No Iterations 2
smoothSolver:  Solving for Uz, Initial residual = 0.0193408, Final residual = 0.00135232, No Iterations 2
GAMG:  Solving for p, Initial residual = 0.0265129, Final residual = 0.00126057, No Iterations 9
GAMG:  Solving for p, Initial residual = 0.0268408, Final residual = 0.00117145, No Iterations 3
GAMG:  Solving for p, Initial residual = 0.00909938, Final residual = 0.000440592, No Iterations 6
time step continuity errors : sum local = 7.07797e-07, global = 1.11999e-07, cumulative = 6.74085e-05
smoothSolver:  Solving for epsilon, Initial residual = 0.0240907, Final residual = 0.000325095, No Iterations 1
smoothSolver:  Solving for k, Initial residual = 0.00198557, Final residual = 4.73321e-05, No Iterations 2
ExecutionTime = 64.3735 s  ClockTime = 65 s

Time = 65s

smoothSolver:  Solving for Ux, Initial residual = 0.000993872, Final residual = 8.19667e-05, No Iterations 2
smoothSolver:  Solving for Uy, Initial residual = 0.0234084, Final residual = 0.0021302, No Iterations 2
smoothSolver:  Solving for Uz, Initial residual = 0.0185146, Final residual = 0.00131374, No Iterations 2
GAMG:  Solving for p, Initial residual = 0.024491, Final residual = 0.00121523, No Iterations 10
GAMG:  Solving for p, Initial residual = 0.0252535, Final residual = 0.00108873, No Iterations 3
GAMG:  Solving for p, Initial residual = 0.00831968, Final residual = 0.00038692, No Iterations 9
time step continuity errors : sum local = 6.17957e-07, global = 1.0821e-07, cumulative = 6.75167e-05
smoothSolver:  Solving for epsilon, Initial residual = 0.0241377, Final residual = 0.000326353, No Iterations 1
smoothSolver:  Solving for k, Initial residual = 0.00193249, Final residual = 4.60514e-05, No Iterations 2
ExecutionTime = 65.1084 s  ClockTime = 65 s

Time = 66s

smoothSolver:  Solving for Ux, Initial residual = 0.000974088, Final residual = 8.04726e-05, No Iterations 2
smoothSolver:  Solving for Uy, Initial residual = 0.0228954, Final residual = 0.00211967, No Iterations 2
smoothSolver:  Solving for Uz, Initial residual = 0.017633, Final residual = 0.00127757, No Iterations 2
GAMG:  Solving for p, Initial residual = 0.0227173, Final residual = 0.00110087, No Iterations 10
GAMG:  Solving for p, Initial residual = 0.0235787, Final residual = 0.000996051, No Iterations 3
GAMG:  Solving for p, Initial residual = 0.0078117, Final residual = 0.00038886, No Iterations 7
time step continuity errors : sum local = 6.15931e-07, global = 1.05899e-07, cumulative = 6.76226e-05
smoothSolver:  Solving for epsilon, Initial residual = 0.0241568, Final residual = 0.000327257, No Iterations 1
smoothSolver:  Solving for k, Initial residual = 0.00187724, Final residual = 4.46645e-05, No Iterations 2
ExecutionTime = 65.8116 s  ClockTime = 66 s

Time = 67s

smoothSolver:  Solving for Ux, Initial residual = 0.000952522, Final residual = 7.89337e-05, No Iterations 2
smoothSolver:  Solving for Uy, Initial residual = 0.0227223, Final residual = 0.0021145, No Iterations 2
smoothSolver:  Solving for Uz, Initial residual = 0.0167292, Final residual = 0.00124612, No Iterations 2
GAMG:  Solving for p, Initial residual = 0.0211359, Final residual = 0.000962996, No Iterations 10
GAMG:  Solving for p, Initial residual = 0.0230493, Final residual = 0.000887877, No Iterations 3
GAMG:  Solving for p, Initial residual = 0.00755197, Final residual = 0.000375722, No Iterations 5
time step continuity errors : sum local = 5.9097e-07, global = 7.748e-08, cumulative = 6.77001e-05
smoothSolver:  Solving for epsilon, Initial residual = 0.0242047, Final residual = 0.000328424, No Iterations 1
smoothSolver:  Solving for k, Initial residual = 0.00182333, Final residual = 4.32655e-05, No Iterations 2
bounding k, min: -0.114834 max: 4.49442 average: 0.885343
ExecutionTime = 66.5071 s  ClockTime = 67 s

Time = 68s

smoothSolver:  Solving for Ux, Initial residual = 0.000931837, Final residual = 7.73432e-05, No Iterations 2
smoothSolver:  Solving for Uy, Initial residual = 0.0226921, Final residual = 0.00211408, No Iterations 2
smoothSolver:  Solving for Uz, Initial residual = 0.0160116, Final residual = 0.00121688, No Iterations 2
GAMG:  Solving for p, Initial residual = 0.0196174, Final residual = 0.000915373, No Iterations 10
GAMG:  Solving for p, Initial residual = 0.0234596, Final residual = 0.000856011, No Iterations 3
GAMG:  Solving for p, Initial residual = 0.00758393, Final residual = 0.000315108, No Iterations 5
time step continuity errors : sum local = 4.93321e-07, global = -5.13651e-08, cumulative = 6.76488e-05
smoothSolver:  Solving for epsilon, Initial residual = 0.0242435, Final residual = 0.000329764, No Iterations 1
smoothSolver:  Solving for k, Initial residual = 0.00177236, Final residual = 4.19565e-05, No Iterations 2
ExecutionTime = 67.2127 s  ClockTime = 67 s

Time = 69s

smoothSolver:  Solving for Ux, Initial residual = 0.000912252, Final residual = 7.57389e-05, No Iterations 2
smoothSolver:  Solving for Uy, Initial residual = 0.0226931, Final residual = 0.00211591, No Iterations 2
smoothSolver:  Solving for Uz, Initial residual = 0.0154577, Final residual = 0.00118822, No Iterations 2
GAMG:  Solving for p, Initial residual = 0.0183739, Final residual = 0.000797874, No Iterations 11
GAMG:  Solving for p, Initial residual = 0.0239268, Final residual = 0.000845382, No Iterations 3
GAMG:  Solving for p, Initial residual = 0.00768832, Final residual = 0.000370482, No Iterations 4
time step continuity errors : sum local = 5.78198e-07, global = -8.58824e-08, cumulative = 6.75629e-05
smoothSolver:  Solving for epsilon, Initial residual = 0.0242682, Final residual = 0.000330532, No Iterations 1
smoothSolver:  Solving for k, Initial residual = 0.00172088, Final residual = 4.06529e-05, No Iterations 2
ExecutionTime = 67.8949 s  ClockTime = 68 s

Time = 70s

smoothSolver:  Solving for Ux, Initial residual = 0.000895228, Final residual = 7.42272e-05, No Iterations 2
smoothSolver:  Solving for Uy, Initial residual = 0.0226776, Final residual = 0.00211577, No Iterations 2
smoothSolver:  Solving for Uz, Initial residual = 0.0150303, Final residual = 0.00115996, No Iterations 2
GAMG:  Solving for p, Initial residual = 0.0173493, Final residual = 0.000791588, No Iterations 11
GAMG:  Solving for p, Initial residual = 0.0239868, Final residual = 0.000846301, No Iterations 3
GAMG:  Solving for p, Initial residual = 0.00768301, Final residual = 0.000319129, No Iterations 5
time step continuity errors : sum local = 4.96701e-07, global = 5.03597e-08, cumulative = 6.76132e-05
smoothSolver:  Solving for epsilon, Initial residual = 0.0242958, Final residual = 0.000331685, No Iterations 1
smoothSolver:  Solving for k, Initial residual = 0.00167012, Final residual = 3.93537e-05, No Iterations 2
ExecutionTime = 68.6485 s  ClockTime = 69 s

Time = 71s

smoothSolver:  Solving for Ux, Initial residual = 0.000880557, Final residual = 7.28082e-05, No Iterations 2
smoothSolver:  Solving for Uy, Initial residual = 0.0226548, Final residual = 0.00211472, No Iterations 2
smoothSolver:  Solving for Uz, Initial residual = 0.0145599, Final residual = 0.00113112, No Iterations 2
GAMG:  Solving for p, Initial residual = 0.0165176, Final residual = 0.000748101, No Iterations 11
GAMG:  Solving for p, Initial residual = 0.0236705, Final residual = 0.000819594, No Iterations 3
GAMG:  Solving for p, Initial residual = 0.00755329, Final residual = 0.00033492, No Iterations 5
time step continuity errors : sum local = 5.19376e-07, global = 5.33091e-08, cumulative = 6.76665e-05
smoothSolver:  Solving for epsilon, Initial residual = 0.0243184, Final residual = 0.000332177, No Iterations 1
smoothSolver:  Solving for k, Initial residual = 0.00162499, Final residual = 3.81289e-05, No Iterations 2
bounding k, min: -0.134276 max: 4.49125 average: 0.887307
ExecutionTime = 69.3479 s  ClockTime = 70 s

Time = 72s

smoothSolver:  Solving for Ux, Initial residual = 0.000867795, Final residual = 7.14684e-05, No Iterations 2
smoothSolver:  Solving for Uy, Initial residual = 0.0225983, Final residual = 0.00210979, No Iterations 2
smoothSolver:  Solving for Uz, Initial residual = 0.0141192, Final residual = 0.0011021, No Iterations 2
GAMG:  Solving for p, Initial residual = 0.015657, Final residual = 0.000702816, No Iterations 12
GAMG:  Solving for p, Initial residual = 0.0226747, Final residual = 0.000794993, No Iterations 3
GAMG:  Solving for p, Initial residual = 0.00727882, Final residual = 0.000353128, No Iterations 5
time step continuity errors : sum local = 5.44758e-07, global = 5.88638e-08, cumulative = 6.77254e-05
smoothSolver:  Solving for epsilon, Initial residual = 0.0243616, Final residual = 0.000333177, No Iterations 1
smoothSolver:  Solving for k, Initial residual = 0.00158255, Final residual = 3.70255e-05, No Iterations 2
ExecutionTime = 70.0646 s  ClockTime = 70 s

Time = 73s

smoothSolver:  Solving for Ux, Initial residual = 0.000854107, Final residual = 7.01571e-05, No Iterations 2
smoothSolver:  Solving for Uy, Initial residual = 0.0225369, Final residual = 0.00210157, No Iterations 2
smoothSolver:  Solving for Uz, Initial residual = 0.0137367, Final residual = 0.00107548, No Iterations 2
GAMG:  Solving for p, Initial residual = 0.0148241, Final residual = 0.000712743, No Iterations 12
GAMG:  Solving for p, Initial residual = 0.0212816, Final residual = 0.000785208, No Iterations 3
GAMG:  Solving for p, Initial residual = 0.00689482, Final residual = 0.000330012, No Iterations 6
time step continuity errors : sum local = 5.05745e-07, global = -9.70315e-08, cumulative = 6.76284e-05
smoothSolver:  Solving for epsilon, Initial residual = 0.0244155, Final residual = 0.000333993, No Iterations 1
smoothSolver:  Solving for k, Initial residual = 0.00154257, Final residual = 3.59985e-05, No Iterations 2
ExecutionTime = 70.794 s  ClockTime = 71 s

Time = 74s

smoothSolver:  Solving for Ux, Initial residual = 0.000840566, Final residual = 6.8835e-05, No Iterations 2
smoothSolver:  Solving for Uy, Initial residual = 0.0225067, Final residual = 0.00209222, No Iterations 2
smoothSolver:  Solving for Uz, Initial residual = 0.0133779, Final residual = 0.0010521, No Iterations 2
GAMG:  Solving for p, Initial residual = 0.0141965, Final residual = 0.000658864, No Iterations 12
GAMG:  Solving for p, Initial residual = 0.0201694, Final residual = 0.000732962, No Iterations 3
GAMG:  Solving for p, Initial residual = 0.00651849, Final residual = 0.000297976, No Iterations 6
time step continuity errors : sum local = 4.53537e-07, global = -8.21389e-08, cumulative = 6.75462e-05
smoothSolver:  Solving for epsilon, Initial residual = 0.0244519, Final residual = 0.000334961, No Iterations 1
smoothSolver:  Solving for k, Initial residual = 0.00150212, Final residual = 3.48953e-05, No Iterations 2
ExecutionTime = 71.5304 s  ClockTime = 72 s

Time = 75s

smoothSolver:  Solving for Ux, Initial residual = 0.000827412, Final residual = 6.75137e-05, No Iterations 2
smoothSolver:  Solving for Uy, Initial residual = 0.0224989, Final residual = 0.00208053, No Iterations 2
smoothSolver:  Solving for Uz, Initial residual = 0.0129288, Final residual = 0.00102956, No Iterations 2
GAMG:  Solving for p, Initial residual = 0.0135862, Final residual = 0.000633094, No Iterations 11
GAMG:  Solving for p, Initial residual = 0.0193525, Final residual = 0.000686088, No Iterations 3
GAMG:  Solving for p, Initial residual = 0.00623491, Final residual = 0.000293999, No Iterations 5
time step continuity errors : sum local = 4.44913e-07, global = 4.94956e-08, cumulative = 6.75957e-05
smoothSolver:  Solving for epsilon, Initial residual = 0.0244942, Final residual = 0.000335737, No Iterations 1
smoothSolver:  Solving for k, Initial residual = 0.00146379, Final residual = 3.38858e-05, No Iterations 2
bounding k, min: -0.0703383 max: 4.49885 average: 0.888715
ExecutionTime = 72.2266 s  ClockTime = 73 s

Time = 76s

smoothSolver:  Solving for Ux, Initial residual = 0.000815488, Final residual = 6.6219e-05, No Iterations 2
smoothSolver:  Solving for Uy, Initial residual = 0.022495, Final residual = 0.00206833, No Iterations 2
smoothSolver:  Solving for Uz, Initial residual = 0.012544, Final residual = 0.00100718, No Iterations 2
GAMG:  Solving for p, Initial residual = 0.0128883, Final residual = 0.000606536, No Iterations 12
GAMG:  Solving for p, Initial residual = 0.0189609, Final residual = 0.000659273, No Iterations 3
GAMG:  Solving for p, Initial residual = 0.00611489, Final residual = 0.000285265, No Iterations 5
time step continuity errors : sum local = 4.29571e-07, global = -6.05458e-08, cumulative = 6.75352e-05
smoothSolver:  Solving for epsilon, Initial residual = 0.0245315, Final residual = 0.000336636, No Iterations 1
smoothSolver:  Solving for k, Initial residual = 0.0014266, Final residual = 3.28633e-05, No Iterations 2
ExecutionTime = 72.9283 s  ClockTime = 73 s

Time = 77s

smoothSolver:  Solving for Ux, Initial residual = 0.000803576, Final residual = 6.49433e-05, No Iterations 2
smoothSolver:  Solving for Uy, Initial residual = 0.022508, Final residual = 0.00205456, No Iterations 2
smoothSolver:  Solving for Uz, Initial residual = 0.012243, Final residual = 0.000987192, No Iterations 2
GAMG:  Solving for p, Initial residual = 0.012298, Final residual = 0.000590433, No Iterations 12
GAMG:  Solving for p, Initial residual = 0.018841, Final residual = 0.000658915, No Iterations 3
GAMG:  Solving for p, Initial residual = 0.00607636, Final residual = 0.00029235, No Iterations 5
time step continuity errors : sum local = 4.3775e-07, global = -6.47869e-08, cumulative = 6.74704e-05
smoothSolver:  Solving for epsilon, Initial residual = 0.0245727, Final residual = 0.00033707, No Iterations 1
smoothSolver:  Solving for k, Initial residual = 0.00139131, Final residual = 3.19526e-05, No Iterations 2
ExecutionTime = 73.6417 s  ClockTime = 74 s

Time = 78s

smoothSolver:  Solving for Ux, Initial residual = 0.000793636, Final residual = 6.36919e-05, No Iterations 2
smoothSolver:  Solving for Uy, Initial residual = 0.0225478, Final residual = 0.00204077, No Iterations 2
smoothSolver:  Solving for Uz, Initial residual = 0.0120226, Final residual = 0.000970611, No Iterations 2
GAMG:  Solving for p, Initial residual = 0.0118794, Final residual = 0.000562959, No Iterations 12
GAMG:  Solving for p, Initial residual = 0.0188084, Final residual = 0.000657158, No Iterations 3
GAMG:  Solving for p, Initial residual = 0.00604829, Final residual = 0.000300154, No Iterations 5
time step continuity errors : sum local = 4.46656e-07, global = -7.08246e-08, cumulative = 6.73996e-05
smoothSolver:  Solving for epsilon, Initial residual = 0.0246253, Final residual = 0.000337972, No Iterations 1
smoothSolver:  Solving for k, Initial residual = 0.00135946, Final residual = 3.10758e-05, No Iterations 2
bounding k, min: -0.00355084 max: 4.49841 average: 0.889454
ExecutionTime = 74.353 s  ClockTime = 75 s

Time = 79s

smoothSolver:  Solving for Ux, Initial residual = 0.000785227, Final residual = 6.24508e-05, No Iterations 2
smoothSolver:  Solving for Uy, Initial residual = 0.022573, Final residual = 0.00202655, No Iterations 2
smoothSolver:  Solving for Uz, Initial residual = 0.0118866, Final residual = 0.000957357, No Iterations 2
GAMG:  Solving for p, Initial residual = 0.0114768, Final residual = 0.000563608, No Iterations 11
GAMG:  Solving for p, Initial residual = 0.0183429, Final residual = 0.000671956, No Iterations 3
GAMG:  Solving for p, Initial residual = 0.00590948, Final residual = 0.000273796, No Iterations 6
time step continuity errors : sum local = 4.0498e-07, global = -7.36964e-08, cumulative = 6.73259e-05
smoothSolver:  Solving for epsilon, Initial residual = 0.02467, Final residual = 0.000338834, No Iterations 1
smoothSolver:  Solving for k, Initial residual = 0.00133041, Final residual = 3.01944e-05, No Iterations 2
[...]
smoothSolver:  Solving for Uz, Initial residual = 1.49795e-05, Final residual = 9.07214e-07, No Iterations 2
GAMG:  Solving for p, Initial residual = 2.0859e-05, Final residual = 8.77541e-07, No Iterations 9
GAMG:  Solving for p, Initial residual = 2.35217e-05, Final residual = 8.095e-07, No Iterations 3
GAMG:  Solving for p, Initial residual = 6.70624e-06, Final residual = 9.48386e-07, No Iterations 1
time step continuity errors : sum local = 1.24481e-09, global = -8.44994e-12, cumulative = 6.67422e-05
smoothSolver:  Solving for epsilon, Initial residual = 0.0273615, Final residual = 0.000377372, No Iterations 1
smoothSolver:  Solving for k, Initial residual = 7.617e-07, Final residual = 8.29243e-08, No Iterations 1
ExecutionTime = 633.193 s  ClockTime = 639 s

Time = 982s

smoothSolver:  Solving for Ux, Initial residual = 1.3956e-07, Final residual = 2.1158e-08, No Iterations 1
smoothSolver:  Solving for Uy, Initial residual = 4.99041e-06, Final residual = 3.97992e-07, No Iterations 2
smoothSolver:  Solving for Uz, Initial residual = 1.32441e-05, Final residual = 7.24599e-07, No Iterations 2
GAMG:  Solving for p, Initial residual = 2.6721e-05, Final residual = 1.30119e-06, No Iterations 6
GAMG:  Solving for p, Initial residual = 2.09613e-05, Final residual = 8.24769e-07, No Iterations 4
GAMG:  Solving for p, Initial residual = 7.54287e-06, Final residual = 6.30309e-07, No Iterations 2
time step continuity errors : sum local = 8.27313e-10, global = -4.36141e-12, cumulative = 6.67422e-05
smoothSolver:  Solving for epsilon, Initial residual = 0.0273614, Final residual = 0.00037737, No Iterations 1
smoothSolver:  Solving for k, Initial residual = 7.34536e-07, Final residual = 7.34807e-08, No Iterations 1
ExecutionTime = 633.743 s  ClockTime = 640 s

Time = 983s

smoothSolver:  Solving for Ux, Initial residual = 1.35244e-07, Final residual = 1.97539e-08, No Iterations 1
smoothSolver:  Solving for Uy, Initial residual = 4.87947e-06, Final residual = 3.92854e-07, No Iterations 2
smoothSolver:  Solving for Uz, Initial residual = 1.13551e-05, Final residual = 7.88826e-07, No Iterations 2
GAMG:  Solving for p, Initial residual = 2.6773e-05, Final residual = 1.28941e-06, No Iterations 6
GAMG:  Solving for p, Initial residual = 2.20529e-05, Final residual = 9.01112e-07, No Iterations 4
GAMG:  Solving for p, Initial residual = 7.92543e-06, Final residual = 6.76096e-07, No Iterations 2
time step continuity errors : sum local = 8.87429e-10, global = 2.57753e-12, cumulative = 6.67422e-05
smoothSolver:  Solving for epsilon, Initial residual = 0.0273614, Final residual = 0.000377364, No Iterations 1
smoothSolver:  Solving for k, Initial residual = 7.36286e-07, Final residual = 7.44788e-08, No Iterations 1
ExecutionTime = 634.292 s  ClockTime = 640 s

Time = 984s

smoothSolver:  Solving for Ux, Initial residual = 1.30063e-07, Final residual = 2.10089e-08, No Iterations 1
smoothSolver:  Solving for Uy, Initial residual = 4.99172e-06, Final residual = 4.07781e-07, No Iterations 2
smoothSolver:  Solving for Uz, Initial residual = 1.18932e-05, Final residual = 8.12307e-07, No Iterations 2
GAMG:  Solving for p, Initial residual = 2.62685e-05, Final residual = 1.21603e-06, No Iterations 8
GAMG:  Solving for p, Initial residual = 3.04482e-05, Final residual = 1.08919e-06, No Iterations 3
GAMG:  Solving for p, Initial residual = 8.10473e-06, Final residual = 7.96798e-07, No Iterations 2
time step continuity errors : sum local = 1.04587e-09, global = 4.41075e-12, cumulative = 6.67422e-05
smoothSolver:  Solving for epsilon, Initial residual = 0.0273614, Final residual = 0.000377362, No Iterations 1
smoothSolver:  Solving for k, Initial residual = 7.22627e-07, Final residual = 7.59698e-08, No Iterations 1
ExecutionTime = 634.861 s  ClockTime = 641 s

Time = 985s

smoothSolver:  Solving for Ux, Initial residual = 1.11313e-07, Final residual = 2.05407e-08, No Iterations 1
smoothSolver:  Solving for Uy, Initial residual = 5.36569e-06, Final residual = 4.01381e-07, No Iterations 2
smoothSolver:  Solving for Uz, Initial residual = 1.26783e-05, Final residual = 7.76983e-07, No Iterations 2
GAMG:  Solving for p, Initial residual = 2.32295e-05, Final residual = 1.09715e-06, No Iterations 9
GAMG:  Solving for p, Initial residual = 3.12605e-05, Final residual = 1.05971e-06, No Iterations 3
GAMG:  Solving for p, Initial residual = 8.58919e-06, Final residual = 7.69337e-07, No Iterations 2
time step continuity errors : sum local = 1.00984e-09, global = 2.73678e-12, cumulative = 6.67422e-05
smoothSolver:  Solving for epsilon, Initial residual = 0.0273614, Final residual = 0.000377358, No Iterations 1
smoothSolver:  Solving for k, Initial residual = 7.12867e-07, Final residual = 7.93118e-08, No Iterations 1
ExecutionTime = 635.448 s  ClockTime = 641 s

Time = 986s

smoothSolver:  Solving for Ux, Initial residual = 1.77434e-07, Final residual = 2.24899e-08, No Iterations 1
smoothSolver:  Solving for Uy, Initial residual = 5.89554e-06, Final residual = 4.42783e-07, No Iterations 2
smoothSolver:  Solving for Uz, Initial residual = 1.51681e-05, Final residual = 8.18122e-07, No Iterations 2
GAMG:  Solving for p, Initial residual = 2.37678e-05, Final residual = 1.10513e-06, No Iterations 7
GAMG:  Solving for p, Initial residual = 2.40395e-05, Final residual = 1.00001e-06, No Iterations 3
GAMG:  Solving for p, Initial residual = 8.04903e-06, Final residual = 7.2849e-07, No Iterations 2
time step continuity errors : sum local = 9.56208e-10, global = -1.88573e-13, cumulative = 6.67422e-05
smoothSolver:  Solving for epsilon, Initial residual = 0.0273615, Final residual = 0.000377363, No Iterations 1
smoothSolver:  Solving for k, Initial residual = 7.64083e-07, Final residual = 7.51011e-08, No Iterations 1
ExecutionTime = 635.999 s  ClockTime = 642 s

Time = 987s

smoothSolver:  Solving for Ux, Initial residual = 2.8287e-07, Final residual = 2.56106e-08, No Iterations 1
smoothSolver:  Solving for Uy, Initial residual = 5.89258e-06, Final residual = 4.40832e-07, No Iterations 2
smoothSolver:  Solving for Uz, Initial residual = 1.5736e-05, Final residual = 8.44508e-07, No Iterations 2
GAMG:  Solving for p, Initial residual = 3.74392e-05, Final residual = 1.87092e-06, No Iterations 6
GAMG:  Solving for p, Initial residual = 2.88655e-05, Final residual = 1.14752e-06, No Iterations 5
GAMG:  Solving for p, Initial residual = 1.3486e-05, Final residual = 9.72201e-07, No Iterations 2
time step continuity errors : sum local = 1.27609e-09, global = 6.67361e-13, cumulative = 6.67422e-05
smoothSolver:  Solving for epsilon, Initial residual = 0.0273616, Final residual = 0.000377368, No Iterations 1
smoothSolver:  Solving for k, Initial residual = 9.21324e-07, Final residual = 8.83798e-08, No Iterations 1
ExecutionTime = 636.566 s  ClockTime = 642 s

Time = 988s

smoothSolver:  Solving for Ux, Initial residual = 1.47023e-07, Final residual = 2.79792e-08, No Iterations 1
smoothSolver:  Solving for Uy, Initial residual = 6.25315e-06, Final residual = 5.40468e-07, No Iterations 2
smoothSolver:  Solving for Uz, Initial residual = 1.52215e-05, Final residual = 1.07534e-06, No Iterations 2
GAMG:  Solving for p, Initial residual = 2.65383e-05, Final residual = 1.31721e-06, No Iterations 8
GAMG:  Solving for p, Initial residual = 2.85651e-05, Final residual = 1.1327e-06, No Iterations 3
GAMG:  Solving for p, Initial residual = 7.96295e-06, Final residual = 8.45776e-07, No Iterations 2
time step continuity errors : sum local = 1.11013e-09, global = 9.78214e-13, cumulative = 6.67422e-05
smoothSolver:  Solving for epsilon, Initial residual = 0.0273615, Final residual = 0.000377373, No Iterations 1
smoothSolver:  Solving for k, Initial residual = 7.68601e-07, Final residual = 8.37102e-08, No Iterations 1
ExecutionTime = 637.134 s  ClockTime = 643 s

Time = 989s

smoothSolver:  Solving for Ux, Initial residual = 1.59068e-07, Final residual = 2.64713e-08, No Iterations 1
smoothSolver:  Solving for Uy, Initial residual = 5.8774e-06, Final residual = 4.86074e-07, No Iterations 2
smoothSolver:  Solving for Uz, Initial residual = 1.6638e-05, Final residual = 9.50713e-07, No Iterations 2
GAMG:  Solving for p, Initial residual = 2.74635e-05, Final residual = 1.2103e-06, No Iterations 8
GAMG:  Solving for p, Initial residual = 2.79599e-05, Final residual = 1.10503e-06, No Iterations 3
GAMG:  Solving for p, Initial residual = 8.90962e-06, Final residual = 8.03755e-07, No Iterations 2
time step continuity errors : sum local = 1.05498e-09, global = 3.95892e-12, cumulative = 6.67422e-05
smoothSolver:  Solving for epsilon, Initial residual = 0.0273615, Final residual = 0.000377373, No Iterations 1
smoothSolver:  Solving for k, Initial residual = 7.71522e-07, Final residual = 8.50258e-08, No Iterations 1
ExecutionTime = 637.702 s  ClockTime = 644 s

Time = 990s

smoothSolver:  Solving for Ux, Initial residual = 1.43845e-07, Final residual = 2.09664e-08, No Iterations 1
smoothSolver:  Solving for Uy, Initial residual = 5.35112e-06, Final residual = 4.02464e-07, No Iterations 2
smoothSolver:  Solving for Uz, Initial residual = 1.4256e-05, Final residual = 8.58877e-07, No Iterations 2
GAMG:  Solving for p, Initial residual = 3.01606e-05, Final residual = 1.19352e-06, No Iterations 7
GAMG:  Solving for p, Initial residual = 2.4762e-05, Final residual = 1.15493e-06, No Iterations 3
GAMG:  Solving for p, Initial residual = 8.44605e-06, Final residual = 8.27378e-07, No Iterations 2
time step continuity errors : sum local = 1.08598e-09, global = 6.84099e-12, cumulative = 6.67422e-05
smoothSolver:  Solving for epsilon, Initial residual = 0.0273614, Final residual = 0.000377372, No Iterations 1
smoothSolver:  Solving for k, Initial residual = 7.38653e-07, Final residual = 7.34256e-08, No Iterations 1
ExecutionTime = 638.252 s  ClockTime = 644 s

Time = 991s

smoothSolver:  Solving for Ux, Initial residual = 1.32752e-07, Final residual = 2.03054e-08, No Iterations 1
smoothSolver:  Solving for Uy, Initial residual = 5.55391e-06, Final residual = 4.55433e-07, No Iterations 2
smoothSolver:  Solving for Uz, Initial residual = 1.27619e-05, Final residual = 9.4374e-07, No Iterations 2
GAMG:  Solving for p, Initial residual = 2.9041e-05, Final residual = 1.28746e-06, No Iterations 7
GAMG:  Solving for p, Initial residual = 2.44079e-05, Final residual = 1.14551e-06, No Iterations 3
GAMG:  Solving for p, Initial residual = 7.99071e-06, Final residual = 8.19628e-07, No Iterations 2
time step continuity errors : sum local = 1.07583e-09, global = 9.2498e-12, cumulative = 6.67422e-05
smoothSolver:  Solving for epsilon, Initial residual = 0.0273614, Final residual = 0.000377364, No Iterations 1
smoothSolver:  Solving for k, Initial residual = 7.29389e-07, Final residual = 7.51514e-08, No Iterations 1
ExecutionTime = 638.802 s  ClockTime = 645 s

Time = 992s

smoothSolver:  Solving for Ux, Initial residual = 1.19681e-07, Final residual = 2.11284e-08, No Iterations 1
smoothSolver:  Solving for Uy, Initial residual = 5.40945e-06, Final residual = 4.62792e-07, No Iterations 2
smoothSolver:  Solving for Uz, Initial residual = 1.2737e-05, Final residual = 8.64258e-07, No Iterations 2
GAMG:  Solving for p, Initial residual = 2.62277e-05, Final residual = 1.28477e-06, No Iterations 8
GAMG:  Solving for p, Initial residual = 2.88992e-05, Final residual = 1.08219e-06, No Iterations 3
GAMG:  Solving for p, Initial residual = 7.52244e-06, Final residual = 8.06176e-07, No Iterations 2
time step continuity errors : sum local = 1.05818e-09, global = 7.25615e-12, cumulative = 6.67422e-05
smoothSolver:  Solving for epsilon, Initial residual = 0.0273614, Final residual = 0.000377364, No Iterations 1
smoothSolver:  Solving for k, Initial residual = 7.03749e-07, Final residual = 7.52633e-08, No Iterations 1
ExecutionTime = 639.372 s  ClockTime = 645 s

Time = 993s

smoothSolver:  Solving for Ux, Initial residual = 1.11088e-07, Final residual = 2.07758e-08, No Iterations 1
smoothSolver:  Solving for Uy, Initial residual = 5.21724e-06, Final residual = 4.194e-07, No Iterations 2
smoothSolver:  Solving for Uz, Initial residual = 1.28231e-05, Final residual = 7.84438e-07, No Iterations 2
GAMG:  Solving for p, Initial residual = 2.15403e-05, Final residual = 9.88216e-07, No Iterations 9
GAMG:  Solving for p, Initial residual = 2.46399e-05, Final residual = 9.04341e-07, No Iterations 3
GAMG:  Solving for p, Initial residual = 6.88255e-06, Final residual = 6.61926e-07, No Iterations 2
time step continuity errors : sum local = 8.68849e-10, global = -2.17602e-12, cumulative = 6.67422e-05
smoothSolver:  Solving for epsilon, Initial residual = 0.0273614, Final residual = 0.000377361, No Iterations 1
smoothSolver:  Solving for k, Initial residual = 6.88456e-07, Final residual = 7.53845e-08, No Iterations 1
ExecutionTime = 639.964 s  ClockTime = 646 s

Time = 994s

smoothSolver:  Solving for Ux, Initial residual = 1.56261e-07, Final residual = 2.0471e-08, No Iterations 1
smoothSolver:  Solving for Uy, Initial residual = 5.18854e-06, Final residual = 4.05892e-07, No Iterations 2
smoothSolver:  Solving for Uz, Initial residual = 1.38424e-05, Final residual = 7.97773e-07, No Iterations 2
GAMG:  Solving for p, Initial residual = 2.40983e-05, Final residual = 1.07028e-06, No Iterations 7
GAMG:  Solving for p, Initial residual = 2.21037e-05, Final residual = 1.00177e-06, No Iterations 3
GAMG:  Solving for p, Initial residual = 7.08612e-06, Final residual = 7.11811e-07, No Iterations 2
time step continuity errors : sum local = 9.34313e-10, global = -6.96767e-12, cumulative = 6.67422e-05
smoothSolver:  Solving for epsilon, Initial residual = 0.0273615, Final residual = 0.000377367, No Iterations 1
smoothSolver:  Solving for k, Initial residual = 7.35748e-07, Final residual = 7.26457e-08, No Iterations 1
ExecutionTime = 640.516 s  ClockTime = 646 s

Time = 995s

smoothSolver:  Solving for Ux, Initial residual = 1.51329e-07, Final residual = 1.99911e-08, No Iterations 1
smoothSolver:  Solving for Uy, Initial residual = 4.95616e-06, Final residual = 3.91397e-07, No Iterations 2
smoothSolver:  Solving for Uz, Initial residual = 1.17223e-05, Final residual = 7.63733e-07, No Iterations 2
GAMG:  Solving for p, Initial residual = 2.61562e-05, Final residual = 1.09494e-06, No Iterations 8
GAMG:  Solving for p, Initial residual = 2.51157e-05, Final residual = 1.15545e-06, No Iterations 3
GAMG:  Solving for p, Initial residual = 7.81053e-06, Final residual = 8.17197e-07, No Iterations 2
time step continuity errors : sum local = 1.07264e-09, global = -1.00979e-11, cumulative = 6.67422e-05
smoothSolver:  Solving for epsilon, Initial residual = 0.0273615, Final residual = 0.000377369, No Iterations 1
smoothSolver:  Solving for k, Initial residual = 7.42905e-07, Final residual = 7.44506e-08, No Iterations 1
ExecutionTime = 641.082 s  ClockTime = 647 s

Time = 996s

smoothSolver:  Solving for Ux, Initial residual = 1.11094e-07, Final residual = 1.8787e-08, No Iterations 1
smoothSolver:  Solving for Uy, Initial residual = 4.99038e-06, Final residual = 3.96466e-07, No Iterations 2
smoothSolver:  Solving for Uz, Initial residual = 1.25965e-05, Final residual = 8.03801e-07, No Iterations 2
GAMG:  Solving for p, Initial residual = 1.91277e-05, Final residual = 9.10987e-07, No Iterations 9
GAMG:  Solving for p, Initial residual = 2.66902e-05, Final residual = 8.92966e-07, No Iterations 3
GAMG:  Solving for p, Initial residual = 7.0801e-06, Final residual = 6.12269e-07, No Iterations 2
time step continuity errors : sum local = 8.03639e-10, global = -6.12601e-12, cumulative = 6.67422e-05
smoothSolver:  Solving for epsilon, Initial residual = 0.0273614, Final residual = 0.000377373, No Iterations 1
smoothSolver:  Solving for k, Initial residual = 6.7982e-07, Final residual = 7.07439e-08, No Iterations 1
ExecutionTime = 641.667 s  ClockTime = 648 s

Time = 997s

smoothSolver:  Solving for Ux, Initial residual = 1.15679e-07, Final residual = 1.81768e-08, No Iterations 1
smoothSolver:  Solving for Uy, Initial residual = 4.91941e-06, Final residual = 3.68925e-07, No Iterations 2
smoothSolver:  Solving for Uz, Initial residual = 1.25218e-05, Final residual = 6.97681e-07, No Iterations 2
GAMG:  Solving for p, Initial residual = 2.19595e-05, Final residual = 9.05815e-07, No Iterations 8
GAMG:  Solving for p, Initial residual = 2.26693e-05, Final residual = 8.54479e-07, No Iterations 3
GAMG:  Solving for p, Initial residual = 7.37768e-06, Final residual = 6.05187e-07, No Iterations 2
time step continuity errors : sum local = 7.94348e-10, global = -1.82806e-12, cumulative = 6.67422e-05
smoothSolver:  Solving for epsilon, Initial residual = 0.0273614, Final residual = 0.000377369, No Iterations 1
smoothSolver:  Solving for k, Initial residual = 6.87621e-07, Final residual = 7.1374e-08, No Iterations 1
ExecutionTime = 642.234 s  ClockTime = 648 s

Time = 998s

smoothSolver:  Solving for Ux, Initial residual = 1.19139e-07, Final residual = 1.71695e-08, No Iterations 1
smoothSolver:  Solving for Uy, Initial residual = 4.83673e-06, Final residual = 3.60881e-07, No Iterations 2
smoothSolver:  Solving for Uz, Initial residual = 1.1443e-05, Final residual = 6.89342e-07, No Iterations 2
GAMG:  Solving for p, Initial residual = 2.39311e-05, Final residual = 1.13188e-06, No Iterations 6
GAMG:  Solving for p, Initial residual = 1.95591e-05, Final residual = 9.77713e-07, No Iterations 3
GAMG:  Solving for p, Initial residual = 7.00814e-06, Final residual = 6.88199e-07, No Iterations 2
time step continuity errors : sum local = 9.03304e-10, global = 3.93648e-12, cumulative = 6.67422e-05
smoothSolver:  Solving for epsilon, Initial residual = 0.0273614, Final residual = 0.000377368, No Iterations 1
smoothSolver:  Solving for k, Initial residual = 6.82486e-07, Final residual = 6.64984e-08, No Iterations 1
ExecutionTime = 642.766 s  ClockTime = 649 s

Time = 999s

smoothSolver:  Solving for Ux, Initial residual = 1.15289e-07, Final residual = 1.88276e-08, No Iterations 1
smoothSolver:  Solving for Uy, Initial residual = 4.61239e-06, Final residual = 3.74899e-07, No Iterations 2
smoothSolver:  Solving for Uz, Initial residual = 1.01713e-05, Final residual = 6.77332e-07, No Iterations 2
GAMG:  Solving for p, Initial residual = 2.44746e-05, Final residual = 1.16267e-06, No Iterations 7
GAMG:  Solving for p, Initial residual = 2.12316e-05, Final residual = 1.00524e-06, No Iterations 3
GAMG:  Solving for p, Initial residual = 6.78484e-06, Final residual = 7.22656e-07, No Iterations 2
time step continuity errors : sum local = 9.48549e-10, global = 6.93283e-12, cumulative = 6.67422e-05
smoothSolver:  Solving for epsilon, Initial residual = 0.0273614, Final residual = 0.000377362, No Iterations 1
smoothSolver:  Solving for k, Initial residual = 6.96864e-07, Final residual = 7.30572e-08, No Iterations 1
ExecutionTime = 643.319 s  ClockTime = 649 s

Time = 1000s

smoothSolver:  Solving for Ux, Initial residual = 1.03475e-07, Final residual = 1.89119e-08, No Iterations 1
smoothSolver:  Solving for Uy, Initial residual = 4.33492e-06, Final residual = 3.50212e-07, No Iterations 2
smoothSolver:  Solving for Uz, Initial residual = 1.04607e-05, Final residual = 6.50336e-07, No Iterations 2
GAMG:  Solving for p, Initial residual = 2.1657e-05, Final residual = 9.18536e-07, No Iterations 9
GAMG:  Solving for p, Initial residual = 2.44406e-05, Final residual = 8.83402e-07, No Iterations 3
GAMG:  Solving for p, Initial residual = 6.38349e-06, Final residual = 6.42986e-07, No Iterations 2
time step continuity errors : sum local = 8.43975e-10, global = 5.31761e-12, cumulative = 6.67422e-05
smoothSolver:  Solving for epsilon, Initial residual = 0.0273614, Final residual = 0.000377362, No Iterations 1
smoothSolver:  Solving for k, Initial residual = 6.83235e-07, Final residual = 7.40416e-08, No Iterations 1
ExecutionTime = 644.646 s  ClockTime = 651 s

End

