/*---------------------------------------------------------------------------*\
  =========                 |
  \\      /  F ield         | OpenFOAM: The Open Source CFD Toolbox
   \\    /   O peration     | Website:  https://openfoam.org
    \\  /    A nd           | Version:  13
     \\/     M anipulation  |
\*---------------------------------------------------------------------------*/
Build  : 13-441953dfbb42
Exec   : foamRun -solver incompressibleFluid
Date   : Jun 18 2026
Time   : 12:45:13
Host   : "openfoam"
PID    : 1585
I/O    : uncollated
Case   : /home/ubuntu/OpenFOAM/ubuntu-v13/run/wStockNoTerrain/rans/summer
nProcs : 1
sigFpe : Floating point exception trapping - not supported on this platform
fileModificationChecking : Monitoring run-time modified files using timeStampMaster (fileModificationSkew 10)
allowSystemOperations : Allowing user-supplied system call operations

// * * * * * * * * * * * * * * * * * * * * * * * * * * * * * * * * * * * * * //
Create time

Create mesh for time = 0

Selecting solver incompressibleFluid
Selecting viscosity model constant
Selecting turbulence model type RAS
    Selecting RAS turbulence model kEpsilon
No MRF models present


SIMPLE: Convergence criteria found
        p: tolerance 1e-05
        U: tolerance 1e-06
        k: tolerance 1e-06
        epsilon: tolerance 1e-06


SIMPLE: Operating solver in steady-state mode with 1 outer corrector
SIMPLE: Operating solver in SIMPLE mode



Starting time loop

Reading surface description:
    pedestrianZone

Time = 1s

smoothSolver:  Solving for Ux, Initial residual = 1, Final residual = 0.0282665, No Iterations 2
smoothSolver:  Solving for Uy, Initial residual = 1, Final residual = 0.055006, No Iterations 2
smoothSolver:  Solving for Uz, Initial residual = 1, Final residual = 0.02748, No Iterations 2
GAMG:  Solving for p, Initial residual = 1, Final residual = 0.0477631, No Iterations 133
GAMG:  Solving for p, Initial residual = 0.258209, Final residual = 0.0111635, No Iterations 2
GAMG:  Solving for p, Initial residual = 0.0655929, Final residual = 0.0032188, No Iterations 3
time step continuity errors : sum local = 0.000372551, global = 2.51336e-05, cumulative = 2.51336e-05
smoothSolver:  Solving for epsilon, Initial residual = 0.323426, Final residual = 0.00295992, No Iterations 1
smoothSolver:  Solving for k, Initial residual = 1, Final residual = 0.0199535, No Iterations 1
ExecutionTime = 4.32114 s  ClockTime = 7 s

Time = 2s

smoothSolver:  Solving for Ux, Initial residual = 0.53651, Final residual = 0.0505757, No Iterations 1
smoothSolver:  Solving for Uy, Initial residual = 0.59672, Final residual = 0.0231714, No Iterations 2
smoothSolver:  Solving for Uz, Initial residual = 0.312754, Final residual = 0.0140617, No Iterations 2
GAMG:  Solving for p, Initial residual = 0.0547563, Final residual = 0.0026592, No Iterations 80
GAMG:  Solving for p, Initial residual = 0.142782, Final residual = 0.0045433, No Iterations 3
GAMG:  Solving for p, Initial residual = 0.0416988, Final residual = 0.00173128, No Iterations 5
time step continuity errors : sum local = 0.000153628, global = -9.55217e-06, cumulative = 1.55815e-05
smoothSolver:  Solving for epsilon, Initial residual = 0.138257, Final residual = 0.000260149, No Iterations 1
smoothSolver:  Solving for k, Initial residual = 0.201501, Final residual = 0.00522605, No Iterations 1
ExecutionTime = 6.20822 s  ClockTime = 9 s

Time = 3s

smoothSolver:  Solving for Ux, Initial residual = 0.291146, Final residual = 0.0225922, No Iterations 1
smoothSolver:  Solving for Uy, Initial residual = 0.307121, Final residual = 0.0104127, No Iterations 2
smoothSolver:  Solving for Uz, Initial residual = 0.162198, Final residual = 0.00729189, No Iterations 2
GAMG:  Solving for p, Initial residual = 0.0522462, Final residual = 0.00255721, No Iterations 88
GAMG:  Solving for p, Initial residual = 0.407492, Final residual = 0.0192643, No Iterations 2
GAMG:  Solving for p, Initial residual = 0.14885, Final residual = 0.00699457, No Iterations 3
time step continuity errors : sum local = 0.000339827, global = -1.44159e-05, cumulative = 1.16553e-06
smoothSolver:  Solving for epsilon, Initial residual = 0.0295113, Final residual = 0.000105152, No Iterations 1
smoothSolver:  Solving for k, Initial residual = 0.0742103, Final residual = 0.00317935, No Iterations 1
ExecutionTime = 8.15972 s  ClockTime = 11 s

Time = 4s

smoothSolver:  Solving for Ux, Initial residual = 0.104538, Final residual = 0.00817764, No Iterations 1
smoothSolver:  Solving for Uy, Initial residual = 0.148036, Final residual = 0.00442763, No Iterations 2
smoothSolver:  Solving for Uz, Initial residual = 0.144132, Final residual = 0.00518716, No Iterations 2
GAMG:  Solving for p, Initial residual = 0.0702415, Final residual = 0.00343127, No Iterations 124
GAMG:  Solving for p, Initial residual = 0.318607, Final residual = 0.0139454, No Iterations 2
GAMG:  Solving for p, Initial residual = 0.0872219, Final residual = 0.0037306, No Iterations 3
time step continuity errors : sum local = 0.000456636, global = 1.79778e-05, cumulative = 1.91433e-05
smoothSolver:  Solving for epsilon, Initial residual = 0.0128706, Final residual = 0.000101062, No Iterations 1
smoothSolver:  Solving for k, Initial residual = 0.0539809, Final residual = 0.00250915, No Iterations 1
ExecutionTime = 10.7266 s  ClockTime = 14 s

Time = 5s

smoothSolver:  Solving for Ux, Initial residual = 0.112018, Final residual = 0.00784386, No Iterations 1
smoothSolver:  Solving for Uy, Initial residual = 0.186762, Final residual = 0.00459907, No Iterations 2
smoothSolver:  Solving for Uz, Initial residual = 0.251899, Final residual = 0.00987504, No Iterations 2
GAMG:  Solving for p, Initial residual = 0.113439, Final residual = 0.00547968, No Iterations 69
GAMG:  Solving for p, Initial residual = 0.198324, Final residual = 0.00638855, No Iterations 3
GAMG:  Solving for p, Initial residual = 0.0530425, Final residual = 0.00254413, No Iterations 5
time step continuity errors : sum local = 0.000153833, global = 1.05621e-05, cumulative = 2.97054e-05
smoothSolver:  Solving for epsilon, Initial residual = 0.0090016, Final residual = 0.000133481, No Iterations 1
smoothSolver:  Solving for k, Initial residual = 0.0555109, Final residual = 0.00263944, No Iterations 1
ExecutionTime = 12.3992 s  ClockTime = 15 s

Time = 6s

smoothSolver:  Solving for Ux, Initial residual = 0.186786, Final residual = 0.0141913, No Iterations 1
smoothSolver:  Solving for Uy, Initial residual = 0.257908, Final residual = 0.00676227, No Iterations 2
smoothSolver:  Solving for Uz, Initial residual = 0.181069, Final residual = 0.00773112, No Iterations 2
GAMG:  Solving for p, Initial residual = 0.0728224, Final residual = 0.00351942, No Iterations 62
GAMG:  Solving for p, Initial residual = 0.307556, Final residual = 0.00911611, No Iterations 3
GAMG:  Solving for p, Initial residual = 0.103593, Final residual = 0.00473663, No Iterations 5
time step continuity errors : sum local = 0.000150719, global = -1.0818e-05, cumulative = 1.88873e-05
smoothSolver:  Solving for epsilon, Initial residual = 0.00778411, Final residual = 0.000207754, No Iterations 1
smoothSolver:  Solving for k, Initial residual = 0.0415199, Final residual = 0.00300898, No Iterations 1
ExecutionTime = 13.9507 s  ClockTime = 17 s

Time = 7s

smoothSolver:  Solving for Ux, Initial residual = 0.0940176, Final residual = 0.00906167, No Iterations 1
smoothSolver:  Solving for Uy, Initial residual = 0.192467, Final residual = 0.00582676, No Iterations 2
smoothSolver:  Solving for Uz, Initial residual = 0.161157, Final residual = 0.00766925, No Iterations 2
GAMG:  Solving for p, Initial residual = 0.103895, Final residual = 0.00513593, No Iterations 96
GAMG:  Solving for p, Initial residual = 0.278487, Final residual = 0.0117389, No Iterations 2
GAMG:  Solving for p, Initial residual = 0.0738224, Final residual = 0.00338772, No Iterations 3
time step continuity errors : sum local = 0.000244954, global = 1.07921e-05, cumulative = 2.96794e-05
smoothSolver:  Solving for epsilon, Initial residual = 0.00787175, Final residual = 0.00030684, No Iterations 1
smoothSolver:  Solving for k, Initial residual = 0.0248461, Final residual = 0.000725919, No Iterations 2
ExecutionTime = 16.039 s  ClockTime = 19 s

Time = 8s

smoothSolver:  Solving for Ux, Initial residual = 0.072597, Final residual = 0.00506859, No Iterations 1
smoothSolver:  Solving for Uy, Initial residual = 0.149083, Final residual = 0.00511727, No Iterations 2
smoothSolver:  Solving for Uz, Initial residual = 0.215621, Final residual = 0.010009, No Iterations 2
GAMG:  Solving for p, Initial residual = 0.132551, Final residual = 0.00658002, No Iterations 70
GAMG:  Solving for p, Initial residual = 0.225066, Final residual = 0.00693812, No Iterations 3
GAMG:  Solving for p, Initial residual = 0.0580983, Final residual = 0.0026503, No Iterations 5
time step continuity errors : sum local = 0.000113754, global = -7.78977e-06, cumulative = 2.18897e-05
smoothSolver:  Solving for epsilon, Initial residual = 0.00843426, Final residual = 0.000377236, No Iterations 1
smoothSolver:  Solving for k, Initial residual = 0.0229553, Final residual = 0.000695837, No Iterations 2
ExecutionTime = 17.7337 s  ClockTime = 21 s

Time = 9s

smoothSolver:  Solving for Ux, Initial residual = 0.0986023, Final residual = 0.00805561, No Iterations 1
smoothSolver:  Solving for Uy, Initial residual = 0.144647, Final residual = 0.0051045, No Iterations 2
smoothSolver:  Solving for Uz, Initial residual = 0.162001, Final residual = 0.00686266, No Iterations 2
GAMG:  Solving for p, Initial residual = 0.0869206, Final residual = 0.0042695, No Iterations 50
GAMG:  Solving for p, Initial residual = 0.242867, Final residual = 0.00947953, No Iterations 3
GAMG:  Solving for p, Initial residual = 0.086063, Final residual = 0.00406077, No Iterations 13
time step continuity errors : sum local = 6.12466e-05, global = 8.01229e-06, cumulative = 2.9902e-05
smoothSolver:  Solving for epsilon, Initial residual = 0.00926894, Final residual = 0.000365452, No Iterations 1
smoothSolver:  Solving for k, Initial residual = 0.0304249, Final residual = 0.00275724, No Iterations 1
ExecutionTime = 19.219 s  ClockTime = 22 s

Time = 10s

smoothSolver:  Solving for Ux, Initial residual = 0.0494471, Final residual = 0.00479159, No Iterations 1
smoothSolver:  Solving for Uy, Initial residual = 0.120742, Final residual = 0.00406767, No Iterations 2
smoothSolver:  Solving for Uz, Initial residual = 0.14226, Final residual = 0.00605402, No Iterations 2
GAMG:  Solving for p, Initial residual = 0.102541, Final residual = 0.00502982, No Iterations 86
GAMG:  Solving for p, Initial residual = 0.249336, Final residual = 0.0113254, No Iterations 2
GAMG:  Solving for p, Initial residual = 0.0723513, Final residual = 0.00289932, No Iterations 4
time step continuity errors : sum local = 0.000110944, global = 1.73419e-05, cumulative = 4.72439e-05
smoothSolver:  Solving for epsilon, Initial residual = 0.010871, Final residual = 0.00036107, No Iterations 1
smoothSolver:  Solving for k, Initial residual = 0.0263537, Final residual = 0.00234554, No Iterations 1
ExecutionTime = 21.151 s  ClockTime = 24 s

Time = 11s

smoothSolver:  Solving for Ux, Initial residual = 0.0337946, Final residual = 0.000841591, No Iterations 2
smoothSolver:  Solving for Uy, Initial residual = 0.120144, Final residual = 0.0034468, No Iterations 2
smoothSolver:  Solving for Uz, Initial residual = 0.193805, Final residual = 0.00819242, No Iterations 2
GAMG:  Solving for p, Initial residual = 0.185295, Final residual = 0.0092621, No Iterations 63
GAMG:  Solving for p, Initial residual = 0.261822, Final residual = 0.00833094, No Iterations 3
GAMG:  Solving for p, Initial residual = 0.0688812, Final residual = 0.00337185, No Iterations 5
time step continuity errors : sum local = 8.58741e-05, global = 5.78874e-06, cumulative = 5.30326e-05
smoothSolver:  Solving for epsilon, Initial residual = 0.0114463, Final residual = 0.000323738, No Iterations 1
smoothSolver:  Solving for k, Initial residual = 0.0210118, Final residual = 0.00206704, No Iterations 1
ExecutionTime = 22.7253 s  ClockTime = 26 s

Time = 12s

smoothSolver:  Solving for Ux, Initial residual = 0.0531804, Final residual = 0.00116568, No Iterations 2
smoothSolver:  Solving for Uy, Initial residual = 0.129828, Final residual = 0.00382484, No Iterations 2
smoothSolver:  Solving for Uz, Initial residual = 0.155291, Final residual = 0.00660476, No Iterations 2
GAMG:  Solving for p, Initial residual = 0.122605, Final residual = 0.00595559, No Iterations 40
GAMG:  Solving for p, Initial residual = 0.229196, Final residual = 0.0104064, No Iterations 3
GAMG:  Solving for p, Initial residual = 0.072003, Final residual = 0.00341649, No Iterations 17
time step continuity errors : sum local = 3.45499e-05, global = -4.58339e-06, cumulative = 4.84492e-05
smoothSolver:  Solving for epsilon, Initial residual = 0.0137472, Final residual = 0.000330594, No Iterations 1
smoothSolver:  Solving for k, Initial residual = 0.0267709, Final residual = 0.00201392, No Iterations 1
ExecutionTime = 24.1148 s  ClockTime = 27 s

Time = 13s

smoothSolver:  Solving for Ux, Initial residual = 0.0320724, Final residual = 0.000940118, No Iterations 2
smoothSolver:  Solving for Uy, Initial residual = 0.124561, Final residual = 0.00430431, No Iterations 2
smoothSolver:  Solving for Uz, Initial residual = 0.131866, Final residual = 0.00634952, No Iterations 2
GAMG:  Solving for p, Initial residual = 0.148824, Final residual = 0.00725979, No Iterations 70
GAMG:  Solving for p, Initial residual = 0.210557, Final residual = 0.0066483, No Iterations 3
GAMG:  Solving for p, Initial residual = 0.061783, Final residual = 0.00304875, No Iterations 5
time step continuity errors : sum local = 6.91681e-05, global = -4.57331e-06, cumulative = 4.38759e-05
smoothSolver:  Solving for epsilon, Initial residual = 0.0162146, Final residual = 0.000359899, No Iterations 1
smoothSolver:  Solving for k, Initial residual = 0.022919, Final residual = 0.00194738, No Iterations 1
ExecutionTime = 25.8115 s  ClockTime = 29 s

Time = 14s

smoothSolver:  Solving for Ux, Initial residual = 0.0243191, Final residual = 0.00227338, No Iterations 1
smoothSolver:  Solving for Uy, Initial residual = 0.0956398, Final residual = 0.00404352, No Iterations 2
smoothSolver:  Solving for Uz, Initial residual = 0.155344, Final residual = 0.0071826, No Iterations 2
GAMG:  Solving for p, Initial residual = 0.199652, Final residual = 0.0098846, No Iterations 65
GAMG:  Solving for p, Initial residual = 0.243731, Final residual = 0.00801695, No Iterations 3
GAMG:  Solving for p, Initial residual = 0.0644601, Final residual = 0.0029201, No Iterations 7
time step continuity errors : sum local = 5.38193e-05, global = -4.73482e-06, cumulative = 3.91411e-05
smoothSolver:  Solving for epsilon, Initial residual = 0.0173328, Final residual = 0.000370993, No Iterations 1
smoothSolver:  Solving for k, Initial residual = 0.0166226, Final residual = 0.000374445, No Iterations 2
ExecutionTime = 27.4545 s  ClockTime = 30 s

Time = 15s

smoothSolver:  Solving for Ux, Initial residual = 0.031431, Final residual = 0.0028809, No Iterations 1
smoothSolver:  Solving for Uy, Initial residual = 0.0867694, Final residual = 0.00369999, No Iterations 2
smoothSolver:  Solving for Uz, Initial residual = 0.142121, Final residual = 0.00567503, No Iterations 2
GAMG:  Solving for p, Initial residual = 0.1329, Final residual = 0.00628303, No Iterations 34
GAMG:  Solving for p, Initial residual = 0.28342, Final residual = 0.0135419, No Iterations 3
GAMG:  Solving for p, Initial residual = 0.0799606, Final residual = 0.00378322, No Iterations 13
time step continuity errors : sum local = 2.54295e-05, global = 2.98044e-06, cumulative = 4.21216e-05
smoothSolver:  Solving for epsilon, Initial residual = 0.0170841, Final residual = 0.000343474, No Iterations 1
smoothSolver:  Solving for k, Initial residual = 0.0166414, Final residual = 0.00153741, No Iterations 1
ExecutionTime = 28.6652 s  ClockTime = 32 s

Time = 16s

smoothSolver:  Solving for Ux, Initial residual = 0.0227485, Final residual = 0.000615969, No Iterations 2
smoothSolver:  Solving for Uy, Initial residual = 0.0922738, Final residual = 0.00374027, No Iterations 2
smoothSolver:  Solving for Uz, Initial residual = 0.12152, Final residual = 0.00506399, No Iterations 2
GAMG:  Solving for p, Initial residual = 0.133939, Final residual = 0.00649551, No Iterations 56
GAMG:  Solving for p, Initial residual = 0.178132, Final residual = 0.00716124, No Iterations 3
GAMG:  Solving for p, Initial residual = 0.0556835, Final residual = 0.00271347, No Iterations 11
time step continuity errors : sum local = 3.46056e-05, global = 4.1644e-06, cumulative = 4.6286e-05
smoothSolver:  Solving for epsilon, Initial residual = 0.0171521, Final residual = 0.000303839, No Iterations 1
smoothSolver:  Solving for k, Initial residual = 0.0150283, Final residual = 0.00139514, No Iterations 1
ExecutionTime = 30.2192 s  ClockTime = 33 s

Time = 17s

smoothSolver:  Solving for Ux, Initial residual = 0.0150209, Final residual = 0.000558449, No Iterations 2
smoothSolver:  Solving for Uy, Initial residual = 0.0841512, Final residual = 0.00351652, No Iterations 2
smoothSolver:  Solving for Uz, Initial residual = 0.123143, Final residual = 0.0056839, No Iterations 2
GAMG:  Solving for p, Initial residual = 0.232573, Final residual = 0.0114363, No Iterations 59
GAMG:  Solving for p, Initial residual = 0.220359, Final residual = 0.00836394, No Iterations 3
GAMG:  Solving for p, Initial residual = 0.0643257, Final residual = 0.00318381, No Iterations 9
time step continuity errors : sum local = 3.60427e-05, global = 3.76172e-06, cumulative = 5.00477e-05
smoothSolver:  Solving for epsilon, Initial residual = 0.0167548, Final residual = 0.000272921, No Iterations 1
smoothSolver:  Solving for k, Initial residual = 0.0139154, Final residual = 0.00130479, No Iterations 1
ExecutionTime = 31.793 s  ClockTime = 35 s

Time = 18s

smoothSolver:  Solving for Ux, Initial residual = 0.0185718, Final residual = 0.000620017, No Iterations 2
smoothSolver:  Solving for Uy, Initial residual = 0.0741091, Final residual = 0.00314873, No Iterations 2
smoothSolver:  Solving for Uz, Initial residual = 0.116334, Final residual = 0.00543192, No Iterations 2
GAMG:  Solving for p, Initial residual = 0.164255, Final residual = 0.00752873, No Iterations 34
GAMG:  Solving for p, Initial residual = 0.333819, Final residual = 0.0139916, No Iterations 3
GAMG:  Solving for p, Initial residual = 0.100081, Final residual = 0.00469412, No Iterations 11
time step continuity errors : sum local = 2.16607e-05, global = -2.58857e-06, cumulative = 4.74591e-05
smoothSolver:  Solving for epsilon, Initial residual = 0.0169689, Final residual = 0.000266505, No Iterations 1
smoothSolver:  Solving for k, Initial residual = 0.0144435, Final residual = 0.00122598, No Iterations 1
ExecutionTime = 32.973 s  ClockTime = 36 s

Time = 19s

smoothSolver:  Solving for Ux, Initial residual = 0.0153258, Final residual = 0.000557384, No Iterations 2
smoothSolver:  Solving for Uy, Initial residual = 0.0731718, Final residual = 0.00310582, No Iterations 2
smoothSolver:  Solving for Uz, Initial residual = 0.111555, Final residual = 0.00516132, No Iterations 2
GAMG:  Solving for p, Initial residual = 0.17731, Final residual = 0.00847083, No Iterations 44
GAMG:  Solving for p, Initial residual = 0.17537, Final residual = 0.00746951, No Iterations 3
GAMG:  Solving for p, Initial residual = 0.0567363, Final residual = 0.00272695, No Iterations 15
time step continuity errors : sum local = 2.16527e-05, global = -3.07563e-06, cumulative = 4.43835e-05
smoothSolver:  Solving for epsilon, Initial residual = 0.0174961, Final residual = 0.000270588, No Iterations 1
smoothSolver:  Solving for k, Initial residual = 0.0132927, Final residual = 0.00117182, No Iterations 1
ExecutionTime = 34.3913 s  ClockTime = 37 s

Time = 20s

smoothSolver:  Solving for Ux, Initial residual = 0.0129403, Final residual = 0.00041432, No Iterations 2
smoothSolver:  Solving for Uy, Initial residual = 0.0726369, Final residual = 0.00312001, No Iterations 2
smoothSolver:  Solving for Uz, Initial residual = 0.113083, Final residual = 0.00483818, No Iterations 2
GAMG:  Solving for p, Initial residual = 0.216541, Final residual = 0.010439, No Iterations 51
GAMG:  Solving for p, Initial residual = 0.197744, Final residual = 0.00791524, No Iterations 3
GAMG:  Solving for p, Initial residual = 0.0606267, Final residual = 0.00287853, No Iterations 11
time step continuity errors : sum local = 2.47996e-05, global = -3.11171e-06, cumulative = 4.12718e-05
smoothSolver:  Solving for epsilon, Initial residual = 0.0181536, Final residual = 0.000277167, No Iterations 1
smoothSolver:  Solving for k, Initial residual = 0.0114439, Final residual = 0.00110762, No Iterations 1
ExecutionTime = 35.8717 s  ClockTime = 39 s

Time = 21s

smoothSolver:  Solving for Ux, Initial residual = 0.014095, Final residual = 0.00038479, No Iterations 2
smoothSolver:  Solving for Uy, Initial residual = 0.065069, Final residual = 0.00298895, No Iterations 2
smoothSolver:  Solving for Uz, Initial residual = 0.110077, Final residual = 0.00425234, No Iterations 2
GAMG:  Solving for p, Initial residual = 0.167667, Final residual = 0.00807305, No Iterations 36
GAMG:  Solving for p, Initial residual = 0.254394, Final residual = 0.0108515, No Iterations 3
GAMG:  Solving for p, Initial residual = 0.0727553, Final residual = 0.00357838, No Iterations 12
time step continuity errors : sum local = 2.1143e-05, global = -3.78588e-06, cumulative = 3.74859e-05
smoothSolver:  Solving for epsilon, Initial residual = 0.0182951, Final residual = 0.000272749, No Iterations 1
smoothSolver:  Solving for k, Initial residual = 0.0113177, Final residual = 0.0010338, No Iterations 1
ExecutionTime = 37.1034 s  ClockTime = 40 s

Time = 22s

smoothSolver:  Solving for Ux, Initial residual = 0.0121305, Final residual = 0.000387503, No Iterations 2
smoothSolver:  Solving for Uy, Initial residual = 0.0608698, Final residual = 0.00293058, No Iterations 2
smoothSolver:  Solving for Uz, Initial residual = 0.101561, Final residual = 0.00422233, No Iterations 2
GAMG:  Solving for p, Initial residual = 0.155848, Final residual = 0.00773336, No Iterations 34
GAMG:  Solving for p, Initial residual = 0.256693, Final residual = 0.0120753, No Iterations 3
GAMG:  Solving for p, Initial residual = 0.0741005, Final residual = 0.00360978, No Iterations 15
time step continuity errors : sum local = 1.58527e-05, global = 2.07097e-06, cumulative = 3.95569e-05
smoothSolver:  Solving for epsilon, Initial residual = 0.0183431, Final residual = 0.00026205, No Iterations 1
smoothSolver:  Solving for k, Initial residual = 0.0106422, Final residual = 0.000966532, No Iterations 1
ExecutionTime = 38.3498 s  ClockTime = 41 s

Time = 23s

smoothSolver:  Solving for Ux, Initial residual = 0.00972829, Final residual = 0.000383539, No Iterations 2
smoothSolver:  Solving for Uy, Initial residual = 0.0623041, Final residual = 0.00302005, No Iterations 2
smoothSolver:  Solving for Uz, Initial residual = 0.0930999, Final residual = 0.00420055, No Iterations 2
GAMG:  Solving for p, Initial residual = 0.163335, Final residual = 0.00787555, No Iterations 37
GAMG:  Solving for p, Initial residual = 0.207487, Final residual = 0.00940008, No Iterations 3
GAMG:  Solving for p, Initial residual = 0.0654259, Final residual = 0.00319285, No Iterations 21
time step continuity errors : sum local = 1.47547e-05, global = 1.93605e-06, cumulative = 4.14929e-05
smoothSolver:  Solving for epsilon, Initial residual = 0.0183014, Final residual = 0.00024798, No Iterations 1
smoothSolver:  Solving for k, Initial residual = 0.0096783, Final residual = 0.000912516, No Iterations 1
ExecutionTime = 39.7506 s  ClockTime = 43 s

Time = 24s

smoothSolver:  Solving for Ux, Initial residual = 0.00934637, Final residual = 0.000392615, No Iterations 2
smoothSolver:  Solving for Uy, Initial residual = 0.0602119, Final residual = 0.00296257, No Iterations 2
smoothSolver:  Solving for Uz, Initial residual = 0.0921274, Final residual = 0.00398037, No Iterations 2
GAMG:  Solving for p, Initial residual = 0.214796, Final residual = 0.010411, No Iterations 35
GAMG:  Solving for p, Initial residual = 0.285672, Final residual = 0.0135335, No Iterations 3
GAMG:  Solving for p, Initial residual = 0.0871348, Final residual = 0.00417588, No Iterations 25
time step continuity errors : sum local = 1.41892e-05, global = 2.14361e-06, cumulative = 4.36365e-05
smoothSolver:  Solving for epsilon, Initial residual = 0.018302, Final residual = 0.000242423, No Iterations 1
smoothSolver:  Solving for k, Initial residual = 0.00953986, Final residual = 0.000874309, No Iterations 1
ExecutionTime = 41.1875 s  ClockTime = 44 s

Time = 25s

smoothSolver:  Solving for Ux, Initial residual = 0.00862183, Final residual = 0.000366797, No Iterations 2
smoothSolver:  Solving for Uy, Initial residual = 0.0579049, Final residual = 0.00278095, No Iterations 2
smoothSolver:  Solving for Uz, Initial residual = 0.0916209, Final residual = 0.00385462, No Iterations 2
GAMG:  Solving for p, Initial residual = 0.241173, Final residual = 0.0118074, No Iterations 28
GAMG:  Solving for p, Initial residual = 0.20384, Final residual = 0.00981899, No Iterations 3
GAMG:  Solving for p, Initial residual = 0.0636321, Final residual = 0.003028, No Iterations 15
time step continuity errors : sum local = 1.22176e-05, global = -1.49917e-06, cumulative = 4.21374e-05
smoothSolver:  Solving for epsilon, Initial residual = 0.0185017, Final residual = 0.000244373, No Iterations 1
smoothSolver:  Solving for k, Initial residual = 0.0089829, Final residual = 0.000833076, No Iterations 1
ExecutionTime = 42.3307 s  ClockTime = 45 s

Time = 26s

smoothSolver:  Solving for Ux, Initial residual = 0.00798386, Final residual = 0.000327157, No Iterations 2
smoothSolver:  Solving for Uy, Initial residual = 0.0577613, Final residual = 0.00268831, No Iterations 2
smoothSolver:  Solving for Uz, Initial residual = 0.0867333, Final residual = 0.00350591, No Iterations 2
GAMG:  Solving for p, Initial residual = 0.204853, Final residual = 0.00978507, No Iterations 30
GAMG:  Solving for p, Initial residual = 0.14651, Final residual = 0.00616915, No Iterations 4
GAMG:  Solving for p, Initial residual = 0.0479154, Final residual = 0.00234607, No Iterations 22
time step continuity errors : sum local = 9.89437e-06, global = -1.31781e-06, cumulative = 4.08195e-05
smoothSolver:  Solving for epsilon, Initial residual = 0.0188712, Final residual = 0.000251349, No Iterations 1
smoothSolver:  Solving for k, Initial residual = 0.00834563, Final residual = 0.000795691, No Iterations 1
ExecutionTime = 43.6454 s  ClockTime = 47 s

Time = 27s

smoothSolver:  Solving for Ux, Initial residual = 0.00809937, Final residual = 0.000312379, No Iterations 2
smoothSolver:  Solving for Uy, Initial residual = 0.0535192, Final residual = 0.00257383, No Iterations 2
smoothSolver:  Solving for Uz, Initial residual = 0.0806728, Final residual = 0.00338897, No Iterations 2
GAMG:  Solving for p, Initial residual = 0.166853, Final residual = 0.00806248, No Iterations 31
GAMG:  Solving for p, Initial residual = 0.157147, Final residual = 0.00697346, No Iterations 4
GAMG:  Solving for p, Initial residual = 0.0514752, Final residual = 0.0024903, No Iterations 28
time step continuity errors : sum local = 1.01099e-05, global = -1.36904e-06, cumulative = 3.94505e-05
smoothSolver:  Solving for epsilon, Initial residual = 0.0193319, Final residual = 0.000258847, No Iterations 1
smoothSolver:  Solving for k, Initial residual = 0.0081374, Final residual = 0.00077228, No Iterations 1
ExecutionTime = 45.0806 s  ClockTime = 48 s

Time = 28s

smoothSolver:  Solving for Ux, Initial residual = 0.00744418, Final residual = 0.00030488, No Iterations 2
smoothSolver:  Solving for Uy, Initial residual = 0.050726, Final residual = 0.0024583, No Iterations 2
smoothSolver:  Solving for Uz, Initial residual = 0.0814596, Final residual = 0.0036828, No Iterations 2
GAMG:  Solving for p, Initial residual = 0.14987, Final residual = 0.00692156, No Iterations 28
GAMG:  Solving for p, Initial residual = 0.184357, Final residual = 0.00826542, No Iterations 3
GAMG:  Solving for p, Initial residual = 0.0556158, Final residual = 0.00267333, No Iterations 15
time step continuity errors : sum local = 1.06184e-05, global = 1.98429e-06, cumulative = 4.14348e-05
smoothSolver:  Solving for epsilon, Initial residual = 0.0196539, Final residual = 0.000262075, No Iterations 1
smoothSolver:  Solving for k, Initial residual = 0.00801008, Final residual = 0.000743751, No Iterations 1
ExecutionTime = 46.2245 s  ClockTime = 49 s

Time = 29s

smoothSolver:  Solving for Ux, Initial residual = 0.00628377, Final residual = 0.000293059, No Iterations 2
smoothSolver:  Solving for Uy, Initial residual = 0.0519186, Final residual = 0.00250946, No Iterations 2
smoothSolver:  Solving for Uz, Initial residual = 0.0807996, Final residual = 0.00358177, No Iterations 2
GAMG:  Solving for p, Initial residual = 0.139282, Final residual = 0.00672394, No Iterations 23
GAMG:  Solving for p, Initial residual = 0.153851, Final residual = 0.00661451, No Iterations 4
GAMG:  Solving for p, Initial residual = 0.0473856, Final residual = 0.00216618, No Iterations 20
time step continuity errors : sum local = 7.44154e-06, global = 9.06672e-07, cumulative = 4.23415e-05
smoothSolver:  Solving for epsilon, Initial residual = 0.0198944, Final residual = 0.000259016, No Iterations 1
smoothSolver:  Solving for k, Initial residual = 0.00776862, Final residual = 0.0007166, No Iterations 1
ExecutionTime = 47.404 s  ClockTime = 50 s

Time = 30s

smoothSolver:  Solving for Ux, Initial residual = 0.00577945, Final residual = 0.000287137, No Iterations 2
smoothSolver:  Solving for Uy, Initial residual = 0.0528714, Final residual = 0.00262116, No Iterations 2
smoothSolver:  Solving for Uz, Initial residual = 0.075983, Final residual = 0.00317587, No Iterations 2
GAMG:  Solving for p, Initial residual = 0.13638, Final residual = 0.00643965, No Iterations 25
GAMG:  Solving for p, Initial residual = 0.122392, Final residual = 0.00550679, No Iterations 6
GAMG:  Solving for p, Initial residual = 0.0438075, Final residual = 0.00213304, No Iterations 32
time step continuity errors : sum local = 6.06561e-06, global = 8.16942e-07, cumulative = 4.31584e-05
smoothSolver:  Solving for epsilon, Initial residual = 0.0200475, Final residual = 0.000255482, No Iterations 1
smoothSolver:  Solving for k, Initial residual = 0.00733604, Final residual = 0.000690766, No Iterations 1
ExecutionTime = 48.985 s  ClockTime = 52 s

Time = 31s

smoothSolver:  Solving for Ux, Initial residual = 0.00557003, Final residual = 0.000280033, No Iterations 2
smoothSolver:  Solving for Uy, Initial residual = 0.0498363, Final residual = 0.00258941, No Iterations 2
smoothSolver:  Solving for Uz, Initial residual = 0.0719517, Final residual = 0.00310899, No Iterations 2
GAMG:  Solving for p, Initial residual = 0.13769, Final residual = 0.00688173, No Iterations 24
GAMG:  Solving for p, Initial residual = 0.148724, Final residual = 0.00682776, No Iterations 5
GAMG:  Solving for p, Initial residual = 0.0555226, Final residual = 0.00268977, No Iterations 28
time step continuity errors : sum local = 7.20391e-06, global = 1.14882e-06, cumulative = 4.43072e-05
smoothSolver:  Solving for epsilon, Initial residual = 0.0200994, Final residual = 0.000253149, No Iterations 1
smoothSolver:  Solving for k, Initial residual = 0.00707056, Final residual = 0.000669486, No Iterations 1
ExecutionTime = 50.3628 s  ClockTime = 53 s

Time = 32s

smoothSolver:  Solving for Ux, Initial residual = 0.00518992, Final residual = 0.000262315, No Iterations 2
smoothSolver:  Solving for Uy, Initial residual = 0.0440017, Final residual = 0.00240232, No Iterations 2
smoothSolver:  Solving for Uz, Initial residual = 0.0694437, Final residual = 0.0030285, No Iterations 2
GAMG:  Solving for p, Initial residual = 0.146945, Final residual = 0.0068934, No Iterations 24
GAMG:  Solving for p, Initial residual = 0.149009, Final residual = 0.00676301, No Iterations 4
GAMG:  Solving for p, Initial residual = 0.0510774, Final residual = 0.00245086, No Iterations 20
time step continuity errors : sum local = 6.70316e-06, global = -1.05005e-06, cumulative = 4.32572e-05
smoothSolver:  Solving for epsilon, Initial residual = 0.0202258, Final residual = 0.000254849, No Iterations 1
smoothSolver:  Solving for k, Initial residual = 0.00672341, Final residual = 0.000649615, No Iterations 1
ExecutionTime = 51.5552 s  ClockTime = 55 s

Time = 33s

smoothSolver:  Solving for Ux, Initial residual = 0.0050453, Final residual = 0.000252211, No Iterations 2
smoothSolver:  Solving for Uy, Initial residual = 0.0406378, Final residual = 0.00226423, No Iterations 2
smoothSolver:  Solving for Uz, Initial residual = 0.0656047, Final residual = 0.00287625, No Iterations 2
GAMG:  Solving for p, Initial residual = 0.15081, Final residual = 0.00729045, No Iterations 19
GAMG:  Solving for p, Initial residual = 0.107963, Final residual = 0.00508922, No Iterations 6
GAMG:  Solving for p, Initial residual = 0.03742, Final residual = 0.00179889, No Iterations 26
time step continuity errors : sum local = 4.6956e-06, global = -5.88006e-07, cumulative = 4.26692e-05
smoothSolver:  Solving for epsilon, Initial residual = 0.0205034, Final residual = 0.000260562, No Iterations 1
smoothSolver:  Solving for k, Initial residual = 0.00658008, Final residual = 0.000640416, No Iterations 1
ExecutionTime = 52.7977 s  ClockTime = 56 s

Time = 34s

smoothSolver:  Solving for Ux, Initial residual = 0.00488665, Final residual = 0.000246507, No Iterations 2
smoothSolver:  Solving for Uy, Initial residual = 0.0422536, Final residual = 0.00226121, No Iterations 2
smoothSolver:  Solving for Uz, Initial residual = 0.0643505, Final residual = 0.0028905, No Iterations 2
GAMG:  Solving for p, Initial residual = 0.142718, Final residual = 0.00701621, No Iterations 18
GAMG:  Solving for p, Initial residual = 0.100641, Final residual = 0.00470166, No Iterations 8
GAMG:  Solving for p, Initial residual = 0.036633, Final residual = 0.00181373, No Iterations 27
time step continuity errors : sum local = 4.7624e-06, global = -6.82109e-07, cumulative = 4.19871e-05
smoothSolver:  Solving for epsilon, Initial residual = 0.0208502, Final residual = 0.000267245, No Iterations 1
smoothSolver:  Solving for k, Initial residual = 0.00645461, Final residual = 0.000632553, No Iterations 1
ExecutionTime = 54.0885 s  ClockTime = 57 s

Time = 35s

smoothSolver:  Solving for Ux, Initial residual = 0.00441597, Final residual = 0.000234559, No Iterations 2
smoothSolver:  Solving for Uy, Initial residual = 0.0442707, Final residual = 0.00235542, No Iterations 2
smoothSolver:  Solving for Uz, Initial residual = 0.0638819, Final residual = 0.00295732, No Iterations 2
GAMG:  Solving for p, Initial residual = 0.131044, Final residual = 0.00653138, No Iterations 18
GAMG:  Solving for p, Initial residual = 0.118914, Final residual = 0.00527365, No Iterations 5
GAMG:  Solving for p, Initial residual = 0.0397845, Final residual = 0.00192509, No Iterations 24
time step continuity errors : sum local = 5.34189e-06, global = -9.52715e-07, cumulative = 4.10343e-05
smoothSolver:  Solving for epsilon, Initial residual = 0.0211721, Final residual = 0.000271979, No Iterations 1
smoothSolver:  Solving for k, Initial residual = 0.00629702, Final residual = 0.000624849, No Iterations 1
ExecutionTime = 55.3601 s  ClockTime = 58 s

Time = 36s

smoothSolver:  Solving for Ux, Initial residual = 0.00405997, Final residual = 0.000220257, No Iterations 2
smoothSolver:  Solving for Uy, Initial residual = 0.0442672, Final residual = 0.00243561, No Iterations 2
smoothSolver:  Solving for Uz, Initial residual = 0.0608617, Final residual = 0.00278871, No Iterations 2
GAMG:  Solving for p, Initial residual = 0.120766, Final residual = 0.00554034, No Iterations 18
GAMG:  Solving for p, Initial residual = 0.0993141, Final residual = 0.00440187, No Iterations 5
GAMG:  Solving for p, Initial residual = 0.0332466, Final residual = 0.001656, No Iterations 19
time step continuity errors : sum local = 4.60014e-06, global = 7.13372e-07, cumulative = 4.17477e-05
smoothSolver:  Solving for epsilon, Initial residual = 0.0213949, Final residual = 0.000273698, No Iterations 1
smoothSolver:  Solving for k, Initial residual = 0.00600794, Final residual = 0.000100405, No Iterations 2
ExecutionTime = 56.4608 s  ClockTime = 59 s

Time = 37s

smoothSolver:  Solving for Ux, Initial residual = 0.00399171, Final residual = 0.000213981, No Iterations 2
smoothSolver:  Solving for Uy, Initial residual = 0.042671, Final residual = 0.0024604, No Iterations 2
smoothSolver:  Solving for Uz, Initial residual = 0.0566891, Final residual = 0.00257999, No Iterations 2
GAMG:  Solving for p, Initial residual = 0.110689, Final residual = 0.00542915, No Iterations 14
GAMG:  Solving for p, Initial residual = 0.0678208, Final residual = 0.00325823, No Iterations 8
GAMG:  Solving for p, Initial residual = 0.0254802, Final residual = 0.00124997, No Iterations 24
time step continuity errors : sum local = 3.17635e-06, global = 4.31577e-07, cumulative = 4.21793e-05
smoothSolver:  Solving for epsilon, Initial residual = 0.0215483, Final residual = 0.000274374, No Iterations 1
smoothSolver:  Solving for k, Initial residual = 0.005597, Final residual = 9.8679e-05, No Iterations 2
ExecutionTime = 57.7712 s  ClockTime = 61 s

Time = 38s

smoothSolver:  Solving for Ux, Initial residual = 0.00387627, Final residual = 0.000210687, No Iterations 2
smoothSolver:  Solving for Uy, Initial residual = 0.0401261, Final residual = 0.00242417, No Iterations 2
smoothSolver:  Solving for Uz, Initial residual = 0.0540502, Final residual = 0.00253367, No Iterations 2
GAMG:  Solving for p, Initial residual = 0.104742, Final residual = 0.0049161, No Iterations 13
GAMG:  Solving for p, Initial residual = 0.077945, Final residual = 0.00382492, No Iterations 7
GAMG:  Solving for p, Initial residual = 0.0305453, Final residual = 0.0014907, No Iterations 28
time step continuity errors : sum local = 3.35694e-06, global = 5.05229e-07, cumulative = 4.26845e-05
smoothSolver:  Solving for epsilon, Initial residual = 0.0216153, Final residual = 0.000273457, No Iterations 1
smoothSolver:  Solving for k, Initial residual = 0.00537789, Final residual = 9.79108e-05, No Iterations 2
ExecutionTime = 58.9884 s  ClockTime = 62 s

Time = 39s

smoothSolver:  Solving for Ux, Initial residual = 0.00358806, Final residual = 0.000201621, No Iterations 2
smoothSolver:  Solving for Uy, Initial residual = 0.0390015, Final residual = 0.00236229, No Iterations 2
smoothSolver:  Solving for Uz, Initial residual = 0.0538446, Final residual = 0.00258501, No Iterations 2
GAMG:  Solving for p, Initial residual = 0.105414, Final residual = 0.00501122, No Iterations 12
GAMG:  Solving for p, Initial residual = 0.0841002, Final residual = 0.00400577, No Iterations 6
GAMG:  Solving for p, Initial residual = 0.0321467, Final residual = 0.00158276, No Iterations 28
time step continuity errors : sum local = 3.40474e-06, global = 5.82785e-07, cumulative = 4.32673e-05
smoothSolver:  Solving for epsilon, Initial residual = 0.0217298, Final residual = 0.000274613, No Iterations 1
smoothSolver:  Solving for k, Initial residual = 0.00520496, Final residual = 9.59139e-05, No Iterations 2
ExecutionTime = 60.1849 s  ClockTime = 63 s

Time = 40s

smoothSolver:  Solving for Ux, Initial residual = 0.00339614, Final residual = 0.000193103, No Iterations 2
smoothSolver:  Solving for Uy, Initial residual = 0.0406126, Final residual = 0.00237366, No Iterations 2
smoothSolver:  Solving for Uz, Initial residual = 0.0542793, Final residual = 0.00258037, No Iterations 2
GAMG:  Solving for p, Initial residual = 0.108158, Final residual = 0.00475013, No Iterations 13
GAMG:  Solving for p, Initial residual = 0.0688616, Final residual = 0.00305052, No Iterations 8
GAMG:  Solving for p, Initial residual = 0.0271006, Final residual = 0.0013349, No Iterations 21
time step continuity errors : sum local = 2.8103e-06, global = -5.33091e-07, cumulative = 4.27342e-05
smoothSolver:  Solving for epsilon, Initial residual = 0.0218997, Final residual = 0.000276857, No Iterations 1
smoothSolver:  Solving for k, Initial residual = 0.00502746, Final residual = 9.42297e-05, No Iterations 2
ExecutionTime = 61.346 s  ClockTime = 64 s

Time = 41s

smoothSolver:  Solving for Ux, Initial residual = 0.00328314, Final residual = 0.000185088, No Iterations 2
smoothSolver:  Solving for Uy, Initial residual = 0.0417585, Final residual = 0.0024127, No Iterations 2
smoothSolver:  Solving for Uz, Initial residual = 0.0518426, Final residual = 0.00247312, No Iterations 2
GAMG:  Solving for p, Initial residual = 0.10528, Final residual = 0.00520646, No Iterations 12
GAMG:  Solving for p, Initial residual = 0.058536, Final residual = 0.00290545, No Iterations 8
GAMG:  Solving for p, Initial residual = 0.0230885, Final residual = 0.00114564, No Iterations 19
time step continuity errors : sum local = 2.43211e-06, global = -3.68483e-07, cumulative = 4.23657e-05
smoothSolver:  Solving for epsilon, Initial residual = 0.0221094, Final residual = 0.000280272, No Iterations 1
smoothSolver:  Solving for k, Initial residual = 0.00482404, Final residual = 9.25302e-05, No Iterations 2
ExecutionTime = 62.6345 s  ClockTime = 66 s

Time = 42s

smoothSolver:  Solving for Ux, Initial residual = 0.00309364, Final residual = 0.000175259, No Iterations 2
smoothSolver:  Solving for Uy, Initial residual = 0.0414517, Final residual = 0.00244266, No Iterations 2
smoothSolver:  Solving for Uz, Initial residual = 0.0488383, Final residual = 0.00241471, No Iterations 2
GAMG:  Solving for p, Initial residual = 0.0985419, Final residual = 0.00427392, No Iterations 13
GAMG:  Solving for p, Initial residual = 0.0711388, Final residual = 0.00348807, No Iterations 4
GAMG:  Solving for p, Initial residual = 0.0246246, Final residual = 0.00115981, No Iterations 20
time step continuity errors : sum local = 2.55907e-06, global = -3.99341e-07, cumulative = 4.19664e-05
smoothSolver:  Solving for epsilon, Initial residual = 0.0223078, Final residual = 0.000283297, No Iterations 1
smoothSolver:  Solving for k, Initial residual = 0.00458297, Final residual = 9.0464e-05, No Iterations 2
ExecutionTime = 63.7647 s  ClockTime = 67 s

Time = 43s

smoothSolver:  Solving for Ux, Initial residual = 0.00293104, Final residual = 0.00016731, No Iterations 2
smoothSolver:  Solving for Uy, Initial residual = 0.0399655, Final residual = 0.00244242, No Iterations 2
smoothSolver:  Solving for Uz, Initial residual = 0.045517, Final residual = 0.00236079, No Iterations 2
GAMG:  Solving for p, Initial residual = 0.0919394, Final residual = 0.00413712, No Iterations 13
GAMG:  Solving for p, Initial residual = 0.0704211, Final residual = 0.00329699, No Iterations 4
GAMG:  Solving for p, Initial residual = 0.0240309, Final residual = 0.00117177, No Iterations 18
time step continuity errors : sum local = 2.63553e-06, global = -4.29481e-07, cumulative = 4.15369e-05
smoothSolver:  Solving for epsilon, Initial residual = 0.0224709, Final residual = 0.000285359, No Iterations 1
smoothSolver:  Solving for k, Initial residual = 0.00439194, Final residual = 8.83873e-05, No Iterations 2
ExecutionTime = 64.8258 s  ClockTime = 68 s

Time = 44s

smoothSolver:  Solving for Ux, Initial residual = 0.00279082, Final residual = 0.000162523, No Iterations 2
smoothSolver:  Solving for Uy, Initial residual = 0.0388488, Final residual = 0.00241913, No Iterations 2
smoothSolver:  Solving for Uz, Initial residual = 0.0434651, Final residual = 0.00226554, No Iterations 2
GAMG:  Solving for p, Initial residual = 0.0858852, Final residual = 0.00406197, No Iterations 11
GAMG:  Solving for p, Initial residual = 0.0544892, Final residual = 0.00247593, No Iterations 6
GAMG:  Solving for p, Initial residual = 0.0196268, Final residual = 0.000943536, No Iterations 18
time step continuity errors : sum local = 2.06166e-06, global = -3.6041e-07, cumulative = 4.11765e-05
smoothSolver:  Solving for epsilon, Initial residual = 0.0226096, Final residual = 0.000287449, No Iterations 1
smoothSolver:  Solving for k, Initial residual = 0.00421042, Final residual = 8.63584e-05, No Iterations 2
ExecutionTime = 65.9192 s  ClockTime = 69 s

Time = 45s

smoothSolver:  Solving for Ux, Initial residual = 0.0026532, Final residual = 0.000158581, No Iterations 2
smoothSolver:  Solving for Uy, Initial residual = 0.0390543, Final residual = 0.00240968, No Iterations 2
smoothSolver:  Solving for Uz, Initial residual = 0.0425787, Final residual = 0.00219072, No Iterations 2
GAMG:  Solving for p, Initial residual = 0.0792258, Final residual = 0.00394239, No Iterations 9
GAMG:  Solving for p, Initial residual = 0.0485437, Final residual = 0.00218217, No Iterations 6
GAMG:  Solving for p, Initial residual = 0.018173, Final residual = 0.000864943, No Iterations 18
time step continuity errors : sum local = 1.79522e-06, global = 2.38758e-07, cumulative = 4.14153e-05
smoothSolver:  Solving for epsilon, Initial residual = 0.0227117, Final residual = 0.000288653, No Iterations 1
smoothSolver:  Solving for k, Initial residual = 0.00404333, Final residual = 8.44997e-05, No Iterations 2
ExecutionTime = 66.8548 s  ClockTime = 70 s

Time = 46s

smoothSolver:  Solving for Ux, Initial residual = 0.00248885, Final residual = 0.000153692, No Iterations 2
smoothSolver:  Solving for Uy, Initial residual = 0.0390885, Final residual = 0.00239592, No Iterations 2
smoothSolver:  Solving for Uz, Initial residual = 0.0415494, Final residual = 0.00216276, No Iterations 2
GAMG:  Solving for p, Initial residual = 0.075573, Final residual = 0.0036841, No Iterations 11
GAMG:  Solving for p, Initial residual = 0.0545273, Final residual = 0.00266344, No Iterations 4
GAMG:  Solving for p, Initial residual = 0.0193314, Final residual = 0.000931586, No Iterations 22
time step continuity errors : sum local = 1.81423e-06, global = 2.35779e-07, cumulative = 4.1651e-05
smoothSolver:  Solving for epsilon, Initial residual = 0.0227791, Final residual = 0.000289793, No Iterations 1
smoothSolver:  Solving for k, Initial residual = 0.00388818, Final residual = 8.23562e-05, No Iterations 2
ExecutionTime = 67.8693 s  ClockTime = 71 s

Time = 47s

smoothSolver:  Solving for Ux, Initial residual = 0.00234352, Final residual = 0.000147279, No Iterations 2
smoothSolver:  Solving for Uy, Initial residual = 0.0382922, Final residual = 0.00236493, No Iterations 2
smoothSolver:  Solving for Uz, Initial residual = 0.040288, Final residual = 0.00212408, No Iterations 2
GAMG:  Solving for p, Initial residual = 0.0755332, Final residual = 0.00350194, No Iterations 13
GAMG:  Solving for p, Initial residual = 0.0548739, Final residual = 0.00272932, No Iterations 4
GAMG:  Solving for p, Initial residual = 0.0195102, Final residual = 0.000922111, No Iterations 26
time step continuity errors : sum local = 1.71396e-06, global = 2.25451e-07, cumulative = 4.18765e-05
smoothSolver:  Solving for epsilon, Initial residual = 0.0228693, Final residual = 0.000291818, No Iterations 1
smoothSolver:  Solving for k, Initial residual = 0.00373585, Final residual = 8.05675e-05, No Iterations 2
ExecutionTime = 69.0138 s  ClockTime = 72 s

Time = 48s

smoothSolver:  Solving for Ux, Initial residual = 0.0022789, Final residual = 0.000142128, No Iterations 2
smoothSolver:  Solving for Uy, Initial residual = 0.0367635, Final residual = 0.00231633, No Iterations 2
smoothSolver:  Solving for Uz, Initial residual = 0.038899, Final residual = 0.00208383, No Iterations 2
GAMG:  Solving for p, Initial residual = 0.0752932, Final residual = 0.00371378, No Iterations 11
GAMG:  Solving for p, Initial residual = 0.0444743, Final residual = 0.00213513, No Iterations 8
GAMG:  Solving for p, Initial residual = 0.0176704, Final residual = 0.000859201, No Iterations 20
time step continuity errors : sum local = 1.57643e-06, global = 2.10856e-07, cumulative = 4.20873e-05
smoothSolver:  Solving for epsilon, Initial residual = 0.0229789, Final residual = 0.000293798, No Iterations 1
smoothSolver:  Solving for k, Initial residual = 0.00362066, Final residual = 7.87231e-05, No Iterations 2
ExecutionTime = 70.0521 s  ClockTime = 73 s

Time = 49s

smoothSolver:  Solving for Ux, Initial residual = 0.00219183, Final residual = 0.000136844, No Iterations 2
smoothSolver:  Solving for Uy, Initial residual = 0.035259, Final residual = 0.00226943, No Iterations 2
smoothSolver:  Solving for Uz, Initial residual = 0.0374458, Final residual = 0.00206382, No Iterations 2
GAMG:  Solving for p, Initial residual = 0.0713412, Final residual = 0.00322874, No Iterations 10
GAMG:  Solving for p, Initial residual = 0.0445509, Final residual = 0.0021733, No Iterations 5
GAMG:  Solving for p, Initial residual = 0.0166554, Final residual = 0.000779206, No Iterations 14
time step continuity errors : sum local = 1.4411e-06, global = 2.00641e-07, cumulative = 4.2288e-05
smoothSolver:  Solving for epsilon, Initial residual = 0.0231213, Final residual = 0.000296123, No Iterations 1
smoothSolver:  Solving for k, Initial residual = 0.0035213, Final residual = 7.70136e-05, No Iterations 2
ExecutionTime = 71.0357 s  ClockTime = 74 s

Time = 50s

smoothSolver:  Solving for Ux, Initial residual = 0.00206106, Final residual = 0.000131616, No Iterations 2
smoothSolver:  Solving for Uy, Initial residual = 0.0339491, Final residual = 0.00223077, No Iterations 2
smoothSolver:  Solving for Uz, Initial residual = 0.036085, Final residual = 0.00205324, No Iterations 2
GAMG:  Solving for p, Initial residual = 0.066391, Final residual = 0.0030757, No Iterations 11
GAMG:  Solving for p, Initial residual = 0.0460335, Final residual = 0.00219561, No Iterations 4
GAMG:  Solving for p, Initial residual = 0.0165368, Final residual = 0.000792897, No Iterations 12
time step continuity errors : sum local = 1.47138e-06, global = -1.65739e-07, cumulative = 4.21222e-05
smoothSolver:  Solving for epsilon, Initial residual = 0.0232729, Final residual = 0.000298699, No Iterations 1
smoothSolver:  Solving for k, Initial residual = 0.00341814, Final residual = 7.51841e-05, No Iterations 2
ExecutionTime = 71.8605 s  ClockTime = 75 s

Time = 51s

smoothSolver:  Solving for Ux, Initial residual = 0.00191169, Final residual = 0.000126928, No Iterations 2
smoothSolver:  Solving for Uy, Initial residual = 0.0325946, Final residual = 0.00219433, No Iterations 2
smoothSolver:  Solving for Uz, Initial residual = 0.0347785, Final residual = 0.00202033, No Iterations 2
GAMG:  Solving for p, Initial residual = 0.0622527, Final residual = 0.00277756, No Iterations 11
GAMG:  Solving for p, Initial residual = 0.042561, Final residual = 0.00202698, No Iterations 4
GAMG:  Solving for p, Initial residual = 0.014937, Final residual = 0.000686612, No Iterations 16
time step continuity errors : sum local = 1.26337e-06, global = -1.41662e-07, cumulative = 4.19806e-05
smoothSolver:  Solving for epsilon, Initial residual = 0.0233954, Final residual = 0.000300402, No Iterations 1
smoothSolver:  Solving for k, Initial residual = 0.00329755, Final residual = 7.34479e-05, No Iterations 2
ExecutionTime = 72.7566 s  ClockTime = 76 s

Time = 52s

smoothSolver:  Solving for Ux, Initial residual = 0.00179309, Final residual = 0.000123016, No Iterations 2
smoothSolver:  Solving for Uy, Initial residual = 0.0310488, Final residual = 0.00215595, No Iterations 2
smoothSolver:  Solving for Uz, Initial residual = 0.0329462, Final residual = 0.00195994, No Iterations 2
GAMG:  Solving for p, Initial residual = 0.0582544, Final residual = 0.00255404, No Iterations 10
GAMG:  Solving for p, Initial residual = 0.0380208, Final residual = 0.00161081, No Iterations 5
GAMG:  Solving for p, Initial residual = 0.0134497, Final residual = 0.000627112, No Iterations 12
time step continuity errors : sum local = 1.13658e-06, global = -1.33158e-07, cumulative = 4.18474e-05
smoothSolver:  Solving for epsilon, Initial residual = 0.023494, Final residual = 0.000302015, No Iterations 1
smoothSolver:  Solving for k, Initial residual = 0.00315393, Final residual = 7.18168e-05, No Iterations 2
ExecutionTime = 73.5813 s  ClockTime = 77 s

Time = 53s

smoothSolver:  Solving for Ux, Initial residual = 0.00170342, Final residual = 0.000119736, No Iterations 2
smoothSolver:  Solving for Uy, Initial residual = 0.0296267, Final residual = 0.00212169, No Iterations 2
smoothSolver:  Solving for Uz, Initial residual = 0.0308577, Final residual = 0.00188643, No Iterations 2
GAMG:  Solving for p, Initial residual = 0.0530547, Final residual = 0.00213616, No Iterations 10
GAMG:  Solving for p, Initial residual = 0.0393121, Final residual = 0.00183179, No Iterations 3
GAMG:  Solving for p, Initial residual = 0.0136765, Final residual = 0.000656383, No Iterations 7
time step continuity errors : sum local = 1.15476e-06, global = 1.12224e-07, cumulative = 4.19597e-05
smoothSolver:  Solving for epsilon, Initial residual = 0.0235757, Final residual = 0.000303626, No Iterations 1
smoothSolver:  Solving for k, Initial residual = 0.00303248, Final residual = 6.99082e-05, No Iterations 2
ExecutionTime = 74.2841 s  ClockTime = 77 s

Time = 54s

smoothSolver:  Solving for Ux, Initial residual = 0.00163325, Final residual = 0.000116557, No Iterations 2
smoothSolver:  Solving for Uy, Initial residual = 0.0287413, Final residual = 0.00210258, No Iterations 2
smoothSolver:  Solving for Uz, Initial residual = 0.029058, Final residual = 0.00181865, No Iterations 2
GAMG:  Solving for p, Initial residual = 0.0495126, Final residual = 0.00233574, No Iterations 11
GAMG:  Solving for p, Initial residual = 0.0408075, Final residual = 0.00153714, No Iterations 4
GAMG:  Solving for p, Initial residual = 0.0138852, Final residual = 0.000616664, No Iterations 12
time step continuity errors : sum local = 1.0524e-06, global = 8.3569e-08, cumulative = 4.20432e-05
smoothSolver:  Solving for epsilon, Initial residual = 0.023652, Final residual = 0.000304944, No Iterations 1
smoothSolver:  Solving for k, Initial residual = 0.00293279, Final residual = 6.81831e-05, No Iterations 2
ExecutionTime = 75.1069 s  ClockTime = 78 s

Time = 55s

smoothSolver:  Solving for Ux, Initial residual = 0.00156361, Final residual = 0.000112802, No Iterations 2
smoothSolver:  Solving for Uy, Initial residual = 0.0283675, Final residual = 0.00210526, No Iterations 2
smoothSolver:  Solving for Uz, Initial residual = 0.0278373, Final residual = 0.00178091, No Iterations 2
GAMG:  Solving for p, Initial residual = 0.048066, Final residual = 0.0023634, No Iterations 11
GAMG:  Solving for p, Initial residual = 0.0398818, Final residual = 0.00171332, No Iterations 4
GAMG:  Solving for p, Initial residual = 0.0138037, Final residual = 0.000670867, No Iterations 16
time step continuity errors : sum local = 1.12208e-06, global = 1.23387e-07, cumulative = 4.21666e-05
smoothSolver:  Solving for epsilon, Initial residual = 0.0237366, Final residual = 0.000306113, No Iterations 1
smoothSolver:  Solving for k, Initial residual = 0.00284031, Final residual = 6.64949e-05, No Iterations 2
ExecutionTime = 75.9976 s  ClockTime = 79 s

Time = 56s

smoothSolver:  Solving for Ux, Initial residual = 0.00149211, Final residual = 0.000108691, No Iterations 2
smoothSolver:  Solving for Uy, Initial residual = 0.028205, Final residual = 0.00212239, No Iterations 2
smoothSolver:  Solving for Uz, Initial residual = 0.0275347, Final residual = 0.00176118, No Iterations 2
GAMG:  Solving for p, Initial residual = 0.0469151, Final residual = 0.0021239, No Iterations 11
GAMG:  Solving for p, Initial residual = 0.0386684, Final residual = 0.00172853, No Iterations 4
GAMG:  Solving for p, Initial residual = 0.0132746, Final residual = 0.000624959, No Iterations 20
time step continuity errors : sum local = 1.03773e-06, global = 1.33454e-07, cumulative = 4.23001e-05
smoothSolver:  Solving for epsilon, Initial residual = 0.0238107, Final residual = 0.000307324, No Iterations 1
smoothSolver:  Solving for k, Initial residual = 0.00274377, Final residual = 6.48372e-05, No Iterations 2
ExecutionTime = 76.9609 s  ClockTime = 80 s

Time = 57s

smoothSolver:  Solving for Ux, Initial residual = 0.00141349, Final residual = 0.000104734, No Iterations 2
smoothSolver:  Solving for Uy, Initial residual = 0.0279829, Final residual = 0.00213859, No Iterations 2
smoothSolver:  Solving for Uz, Initial residual = 0.0276061, Final residual = 0.00174258, No Iterations 2
GAMG:  Solving for p, Initial residual = 0.04423, Final residual = 0.00219456, No Iterations 11
GAMG:  Solving for p, Initial residual = 0.0382491, Final residual = 0.00172938, No Iterations 4
GAMG:  Solving for p, Initial residual = 0.0135714, Final residual = 0.00066886, No Iterations 12
time step continuity errors : sum local = 1.10491e-06, global = -1.88094e-07, cumulative = 4.2112e-05
smoothSolver:  Solving for epsilon, Initial residual = 0.0239153, Final residual = 0.000308523, No Iterations 1
smoothSolver:  Solving for k, Initial residual = 0.00264675, Final residual = 6.31839e-05, No Iterations 2
ExecutionTime = 77.7836 s  ClockTime = 81 s

Time = 58s

smoothSolver:  Solving for Ux, Initial residual = 0.001338, Final residual = 0.000101707, No Iterations 2
smoothSolver:  Solving for Uy, Initial residual = 0.0274398, Final residual = 0.00214216, No Iterations 2
smoothSolver:  Solving for Uz, Initial residual = 0.0267638, Final residual = 0.00171106, No Iterations 2
GAMG:  Solving for p, Initial residual = 0.0408338, Final residual = 0.00172591, No Iterations 13
GAMG:  Solving for p, Initial residual = 0.0373166, Final residual = 0.00161732, No Iterations 3
GAMG:  Solving for p, Initial residual = 0.0129911, Final residual = 0.000609697, No Iterations 7
time step continuity errors : sum local = 1.00482e-06, global = -9.72446e-08, cumulative = 4.20147e-05
smoothSolver:  Solving for epsilon, Initial residual = 0.0239992, Final residual = 0.000310468, No Iterations 1
smoothSolver:  Solving for k, Initial residual = 0.00254725, Final residual = 6.13815e-05, No Iterations 2
ExecutionTime = 78.5392 s  ClockTime = 82 s

Time = 59s

smoothSolver:  Solving for Ux, Initial residual = 0.00127988, Final residual = 9.94009e-05, No Iterations 2
smoothSolver:  Solving for Uy, Initial residual = 0.0266789, Final residual = 0.00213294, No Iterations 2
smoothSolver:  Solving for Uz, Initial residual = 0.0251982, Final residual = 0.00166999, No Iterations 2
GAMG:  Solving for p, Initial residual = 0.0381836, Final residual = 0.00174265, No Iterations 11
GAMG:  Solving for p, Initial residual = 0.0323558, Final residual = 0.00152225, No Iterations 3
GAMG:  Solving for p, Initial residual = 0.011107, Final residual = 0.000508017, No Iterations 9
time step continuity errors : sum local = 8.29166e-07, global = -7.35553e-08, cumulative = 4.19412e-05
smoothSolver:  Solving for epsilon, Initial residual = 0.0240913, Final residual = 0.000311971, No Iterations 1
smoothSolver:  Solving for k, Initial residual = 0.0024586, Final residual = 5.99228e-05, No Iterations 2
ExecutionTime = 79.2936 s  ClockTime = 82 s

Time = 60s

smoothSolver:  Solving for Ux, Initial residual = 0.00123231, Final residual = 9.73569e-05, No Iterations 2
smoothSolver:  Solving for Uy, Initial residual = 0.0259262, Final residual = 0.00211674, No Iterations 2
smoothSolver:  Solving for Uz, Initial residual = 0.0232238, Final residual = 0.00162396, No Iterations 2
GAMG:  Solving for p, Initial residual = 0.0358353, Final residual = 0.00168052, No Iterations 10
GAMG:  Solving for p, Initial residual = 0.0294227, Final residual = 0.00128878, No Iterations 4
GAMG:  Solving for p, Initial residual = 0.0102865, Final residual = 0.00047187, No Iterations 9
time step continuity errors : sum local = 7.64806e-07, global = -9.2086e-08, cumulative = 4.18491e-05
smoothSolver:  Solving for epsilon, Initial residual = 0.0241598, Final residual = 0.000313829, No Iterations 1
smoothSolver:  Solving for k, Initial residual = 0.00237555, Final residual = 5.82236e-05, No Iterations 2
ExecutionTime = 80.05 s  ClockTime = 83 s

Time = 61s

smoothSolver:  Solving for Ux, Initial residual = 0.00118513, Final residual = 9.51257e-05, No Iterations 2
smoothSolver:  Solving for Uy, Initial residual = 0.0253768, Final residual = 0.0021035, No Iterations 2
smoothSolver:  Solving for Uz, Initial residual = 0.0218545, Final residual = 0.00158073, No Iterations 2
GAMG:  Solving for p, Initial residual = 0.0326521, Final residual = 0.0014831, No Iterations 11
GAMG:  Solving for p, Initial residual = 0.0295312, Final residual = 0.00138248, No Iterations 3
GAMG:  Solving for p, Initial residual = 0.0102177, Final residual = 0.000486291, No Iterations 8
time step continuity errors : sum local = 7.79882e-07, global = -9.39048e-08, cumulative = 4.17552e-05
smoothSolver:  Solving for epsilon, Initial residual = 0.0242146, Final residual = 0.000315101, No Iterations 1
smoothSolver:  Solving for k, Initial residual = 0.00229445, Final residual = 5.65105e-05, No Iterations 2
ExecutionTime = 80.7874 s  ClockTime = 84 s

Time = 62s

smoothSolver:  Solving for Ux, Initial residual = 0.00113998, Final residual = 9.26612e-05, No Iterations 2
smoothSolver:  Solving for Uy, Initial residual = 0.0250623, Final residual = 0.00209764, No Iterations 2
smoothSolver:  Solving for Uz, Initial residual = 0.0211164, Final residual = 0.00154734, No Iterations 2
GAMG:  Solving for p, Initial residual = 0.0298785, Final residual = 0.00126622, No Iterations 13
GAMG:  Solving for p, Initial residual = 0.0311893, Final residual = 0.00128323, No Iterations 3
GAMG:  Solving for p, Initial residual = 0.0105586, Final residual = 0.00047524, No Iterations 7
time step continuity errors : sum local = 7.54294e-07, global = 7.29599e-08, cumulative = 4.18281e-05
smoothSolver:  Solving for epsilon, Initial residual = 0.0242539, Final residual = 0.000316468, No Iterations 1
smoothSolver:  Solving for k, Initial residual = 0.00221723, Final residual = 5.48356e-05, No Iterations 2
ExecutionTime = 81.5416 s  ClockTime = 85 s

Time = 63s

smoothSolver:  Solving for Ux, Initial residual = 0.00110105, Final residual = 9.01731e-05, No Iterations 2
smoothSolver:  Solving for Uy, Initial residual = 0.0247954, Final residual = 0.00209789, No Iterations 2
smoothSolver:  Solving for Uz, Initial residual = 0.0206566, Final residual = 0.00152042, No Iterations 2
GAMG:  Solving for p, Initial residual = 0.0281384, Final residual = 0.00124597, No Iterations 13
GAMG:  Solving for p, Initial residual = 0.0327104, Final residual = 0.00129642, No Iterations 3
GAMG:  Solving for p, Initial residual = 0.0110508, Final residual = 0.000508437, No Iterations 7
time step continuity errors : sum local = 8.00507e-07, global = 7.91656e-08, cumulative = 4.19073e-05
smoothSolver:  Solving for epsilon, Initial residual = 0.0242881, Final residual = 0.000317459, No Iterations 1
smoothSolver:  Solving for k, Initial residual = 0.00214772, Final residual = 5.33831e-05, No Iterations 2
ExecutionTime = 82.2936 s  ClockTime = 85 s

Time = 64s

smoothSolver:  Solving for Ux, Initial residual = 0.00107106, Final residual = 8.78466e-05, No Iterations 2
smoothSolver:  Solving for Uy, Initial residual = 0.0243794, Final residual = 0.00209784, No Iterations 2
smoothSolver:  Solving for Uz, Initial residual = 0.0201212, Final residual = 0.0014895, No Iterations 2
GAMG:  Solving for p, Initial residual = 0.0267304, Final residual = 0.00132483, No Iterations 12
GAMG:  Solving for p, Initial residual = 0.0339974, Final residual = 0.00140983, No Iterations 3
GAMG:  Solving for p, Initial residual = 0.0114693, Final residual = 0.000537959, No Iterations 8
time step continuity errors : sum local = 8.40605e-07, global = 1.07437e-07, cumulative = 4.20147e-05
smoothSolver:  Solving for epsilon, Initial residual = 0.0243402, Final residual = 0.000318626, No Iterations 1
smoothSolver:  Solving for k, Initial residual = 0.00208082, Final residual = 5.17795e-05, No Iterations 2
ExecutionTime = 83.0469 s  ClockTime = 86 s

Time = 65s

smoothSolver:  Solving for Ux, Initial residual = 0.0010489, Final residual = 8.58583e-05, No Iterations 2
smoothSolver:  Solving for Uy, Initial residual = 0.023791, Final residual = 0.00209336, No Iterations 2
smoothSolver:  Solving for Uz, Initial residual = 0.0196737, Final residual = 0.00145487, No Iterations 2
GAMG:  Solving for p, Initial residual = 0.0253779, Final residual = 0.00121678, No Iterations 14
GAMG:  Solving for p, Initial residual = 0.034572, Final residual = 0.00138382, No Iterations 3
GAMG:  Solving for p, Initial residual = 0.0114648, Final residual = 0.000538426, No Iterations 11
time step continuity errors : sum local = 8.37005e-07, global = 1.1901e-07, cumulative = 4.21337e-05
smoothSolver:  Solving for epsilon, Initial residual = 0.0243762, Final residual = 0.000319638, No Iterations 1
smoothSolver:  Solving for k, Initial residual = 0.00202012, Final residual = 5.02906e-05, No Iterations 2
ExecutionTime = 83.8883 s  ClockTime = 87 s

Time = 66s

smoothSolver:  Solving for Ux, Initial residual = 0.00102905, Final residual = 8.40813e-05, No Iterations 2
smoothSolver:  Solving for Uy, Initial residual = 0.0231514, Final residual = 0.00208597, No Iterations 2
smoothSolver:  Solving for Uz, Initial residual = 0.019238, Final residual = 0.00141944, No Iterations 2
GAMG:  Solving for p, Initial residual = 0.0241635, Final residual = 0.00114656, No Iterations 14
GAMG:  Solving for p, Initial residual = 0.0325717, Final residual = 0.00129689, No Iterations 3
GAMG:  Solving for p, Initial residual = 0.0108325, Final residual = 0.000501812, No Iterations 11
time step continuity errors : sum local = 7.75193e-07, global = 1.23412e-07, cumulative = 4.22572e-05
smoothSolver:  Solving for epsilon, Initial residual = 0.0244169, Final residual = 0.000320818, No Iterations 1
smoothSolver:  Solving for k, Initial residual = 0.00196227, Final residual = 4.87246e-05, No Iterations 2
ExecutionTime = 84.7269 s  ClockTime = 88 s

Time = 67s

smoothSolver:  Solving for Ux, Initial residual = 0.00100536, Final residual = 8.24542e-05, No Iterations 2
smoothSolver:  Solving for Uy, Initial residual = 0.0226787, Final residual = 0.00207759, No Iterations 2
smoothSolver:  Solving for Uz, Initial residual = 0.0185071, Final residual = 0.00138537, No Iterations 2
GAMG:  Solving for p, Initial residual = 0.0228183, Final residual = 0.001123, No Iterations 12
GAMG:  Solving for p, Initial residual = 0.0290202, Final residual = 0.00115661, No Iterations 3
GAMG:  Solving for p, Initial residual = 0.00975993, Final residual = 0.000473411, No Iterations 8
time step continuity errors : sum local = 7.26912e-07, global = -1.19082e-07, cumulative = 4.21381e-05
smoothSolver:  Solving for epsilon, Initial residual = 0.0244636, Final residual = 0.000321961, No Iterations 1
smoothSolver:  Solving for k, Initial residual = 0.00190636, Final residual = 4.72526e-05, No Iterations 2
ExecutionTime = 85.4809 s  ClockTime = 89 s

Time = 68s

smoothSolver:  Solving for Ux, Initial residual = 0.000977287, Final residual = 8.08312e-05, No Iterations 2
smoothSolver:  Solving for Uy, Initial residual = 0.0223772, Final residual = 0.00206856, No Iterations 2
smoothSolver:  Solving for Uz, Initial residual = 0.0177262, Final residual = 0.00135459, No Iterations 2
GAMG:  Solving for p, Initial residual = 0.0213576, Final residual = 0.000938181, No Iterations 12
GAMG:  Solving for p, Initial residual = 0.0270592, Final residual = 0.00098891, No Iterations 3
GAMG:  Solving for p, Initial residual = 0.00904452, Final residual = 0.000407499, No Iterations 6
time step continuity errors : sum local = 6.22458e-07, global = -8.72032e-08, cumulative = 4.20509e-05
smoothSolver:  Solving for epsilon, Initial residual = 0.0244977, Final residual = 0.000323191, No Iterations 1
smoothSolver:  Solving for k, Initial residual = 0.00184704, Final residual = 4.57348e-05, No Iterations 2
ExecutionTime = 86.1993 s  ClockTime = 89 s

Time = 69s

smoothSolver:  Solving for Ux, Initial residual = 0.000951077, Final residual = 7.91411e-05, No Iterations 2
smoothSolver:  Solving for Uy, Initial residual = 0.0221881, Final residual = 0.00206314, No Iterations 2
smoothSolver:  Solving for Uz, Initial residual = 0.0168033, Final residual = 0.00132279, No Iterations 2
GAMG:  Solving for p, Initial residual = 0.0199537, Final residual = 0.000915365, No Iterations 12
GAMG:  Solving for p, Initial residual = 0.0262586, Final residual = 0.000962587, No Iterations 3
GAMG:  Solving for p, Initial residual = 0.00877711, Final residual = 0.00040253, No Iterations 6
time step continuity errors : sum local = 6.12934e-07, global = 8.46836e-08, cumulative = 4.21356e-05
smoothSolver:  Solving for epsilon, Initial residual = 0.0245351, Final residual = 0.000324274, No Iterations 1
smoothSolver:  Solving for k, Initial residual = 0.00178914, Final residual = 4.43208e-05, No Iterations 2
ExecutionTime = 86.9169 s  ClockTime = 90 s

Time = 70s

smoothSolver:  Solving for Ux, Initial residual = 0.000928279, Final residual = 7.74047e-05, No Iterations 2
smoothSolver:  Solving for Uy, Initial residual = 0.0220742, Final residual = 0.00206045, No Iterations 2
smoothSolver:  Solving for Uz, Initial residual = 0.0161011, Final residual = 0.00129278, No Iterations 2
GAMG:  Solving for p, Initial residual = 0.0186377, Final residual = 0.000866507, No Iterations 13
GAMG:  Solving for p, Initial residual = 0.0267721, Final residual = 0.000955761, No Iterations 3
GAMG:  Solving for p, Initial residual = 0.00896702, Final residual = 0.000432553, No Iterations 5
time step continuity errors : sum local = 6.572e-07, global = 6.58673e-08, cumulative = 4.22014e-05
smoothSolver:  Solving for epsilon, Initial residual = 0.0245845, Final residual = 0.000325544, No Iterations 1
smoothSolver:  Solving for k, Initial residual = 0.00172961, Final residual = 4.28531e-05, No Iterations 2
ExecutionTime = 87.6368 s  ClockTime = 91 s

Time = 71s

smoothSolver:  Solving for Ux, Initial residual = 0.000907738, Final residual = 7.56943e-05, No Iterations 2
smoothSolver:  Solving for Uy, Initial residual = 0.0220243, Final residual = 0.00206085, No Iterations 2
smoothSolver:  Solving for Uz, Initial residual = 0.0156518, Final residual = 0.00126455, No Iterations 2
GAMG:  Solving for p, Initial residual = 0.0175579, Final residual = 0.000828522, No Iterations 13
GAMG:  Solving for p, Initial residual = 0.0275776, Final residual = 0.00137294, No Iterations 2
GAMG:  Solving for p, Initial residual = 0.00926852, Final residual = 0.000444124, No Iterations 5
time step continuity errors : sum local = 6.73387e-07, global = -5.74252e-08, cumulative = 4.2144e-05
smoothSolver:  Solving for epsilon, Initial residual = 0.0246217, Final residual = 0.00032659, No Iterations 1
smoothSolver:  Solving for k, Initial residual = 0.00166913, Final residual = 4.14841e-05, No Iterations 2
ExecutionTime = 88.3493 s  ClockTime = 91 s

Time = 72s

smoothSolver:  Solving for Ux, Initial residual = 0.000888632, Final residual = 7.40542e-05, No Iterations 2
smoothSolver:  Solving for Uy, Initial residual = 0.0220027, Final residual = 0.00206385, No Iterations 2
smoothSolver:  Solving for Uz, Initial residual = 0.0153838, Final residual = 0.00123586, No Iterations 2
GAMG:  Solving for p, Initial residual = 0.0168871, Final residual = 0.000837635, No Iterations 13
GAMG:  Solving for p, Initial residual = 0.0277362, Final residual = 0.000973099, No Iterations 3
GAMG:  Solving for p, Initial residual = 0.00923498, Final residual = 0.000441913, No Iterations 5
time step continuity errors : sum local = 6.67961e-07, global = -6.87084e-08, cumulative = 4.20753e-05
smoothSolver:  Solving for epsilon, Initial residual = 0.0246379, Final residual = 0.00032742, No Iterations 1
smoothSolver:  Solving for k, Initial residual = 0.00161258, Final residual = 4.00337e-05, No Iterations 2
ExecutionTime = 89.0682 s  ClockTime = 92 s

Time = 73s

smoothSolver:  Solving for Ux, Initial residual = 0.000870361, Final residual = 7.25307e-05, No Iterations 2
smoothSolver:  Solving for Uy, Initial residual = 0.0219956, Final residual = 0.00206533, No Iterations 2
smoothSolver:  Solving for Uz, Initial residual = 0.0152198, Final residual = 0.0012093, No Iterations 2
GAMG:  Solving for p, Initial residual = 0.0162591, Final residual = 0.00079137, No Iterations 14
GAMG:  Solving for p, Initial residual = 0.0277852, Final residual = 0.000967986, No Iterations 3
GAMG:  Solving for p, Initial residual = 0.00918487, Final residual = 0.000409621, No Iterations 7
time step continuity errors : sum local = 6.16351e-07, global = 7.5095e-08, cumulative = 4.21504e-05
smoothSolver:  Solving for epsilon, Initial residual = 0.0246768, Final residual = 0.000328372, No Iterations 1
smoothSolver:  Solving for k, Initial residual = 0.00156378, Final residual = 3.87975e-05, No Iterations 2
ExecutionTime = 89.8396 s  ClockTime = 93 s

Time = 74s

smoothSolver:  Solving for Ux, Initial residual = 0.000853459, Final residual = 7.10812e-05, No Iterations 2
smoothSolver:  Solving for Uy, Initial residual = 0.021984, Final residual = 0.00206438, No Iterations 2
smoothSolver:  Solving for Uz, Initial residual = 0.0149755, Final residual = 0.00118514, No Iterations 2
GAMG:  Solving for p, Initial residual = 0.015814, Final residual = 0.000790127, No Iterations 12
GAMG:  Solving for p, Initial residual = 0.0268072, Final residual = 0.00096686, No Iterations 3
GAMG:  Solving for p, Initial residual = 0.00882441, Final residual = 0.000394291, No Iterations 9
time step continuity errors : sum local = 5.89863e-07, global = 7.40238e-08, cumulative = 4.22244e-05
smoothSolver:  Solving for epsilon, Initial residual = 0.0247091, Final residual = 0.000329172, No Iterations 1
smoothSolver:  Solving for k, Initial residual = 0.00151649, Final residual = 3.75254e-05, No Iterations 2
ExecutionTime = 90.61 s  ClockTime = 94 s

Time = 75s

smoothSolver:  Solving for Ux, Initial residual = 0.00083764, Final residual = 6.96915e-05, No Iterations 2
smoothSolver:  Solving for Uy, Initial residual = 0.0219441, Final residual = 0.00206044, No Iterations 2
smoothSolver:  Solving for Uz, Initial residual = 0.0145966, Final residual = 0.00115925, No Iterations 2
GAMG:  Solving for p, Initial residual = 0.015487, Final residual = 0.000767517, No Iterations 14
GAMG:  Solving for p, Initial residual = 0.0254351, Final residual = 0.000961506, No Iterations 3
GAMG:  Solving for p, Initial residual = 0.00841567, Final residual = 0.000388944, No Iterations 8
time step continuity errors : sum local = 5.77809e-07, global = 7.74618e-08, cumulative = 4.23019e-05
smoothSolver:  Solving for epsilon, Initial residual = 0.0247408, Final residual = 0.000330136, No Iterations 1
smoothSolver:  Solving for k, Initial residual = 0.00146994, Final residual = 3.64e-05, No Iterations 2
ExecutionTime = 91.3954 s  ClockTime = 94 s

Time = 76s

smoothSolver:  Solving for Ux, Initial residual = 0.000821776, Final residual = 6.83711e-05, No Iterations 2
smoothSolver:  Solving for Uy, Initial residual = 0.0218663, Final residual = 0.00205271, No Iterations 2
smoothSolver:  Solving for Uz, Initial residual = 0.0140998, Final residual = 0.00113123, No Iterations 2
GAMG:  Solving for p, Initial residual = 0.0148366, Final residual = 0.000728969, No Iterations 14
GAMG:  Solving for p, Initial residual = 0.0237289, Final residual = 0.000897738, No Iterations 3
GAMG:  Solving for p, Initial residual = 0.00783922, Final residual = 0.000358911, No Iterations 8
time step continuity errors : sum local = 5.30502e-07, global = 7.05139e-08, cumulative = 4.23724e-05
smoothSolver:  Solving for epsilon, Initial residual = 0.0247787, Final residual = 0.000331152, No Iterations 1
smoothSolver:  Solving for k, Initial residual = 0.00142614, Final residual = 3.52827e-05, No Iterations 2
ExecutionTime = 92.1838 s  ClockTime = 95 s

Time = 77s

smoothSolver:  Solving for Ux, Initial residual = 0.000806628, Final residual = 6.70577e-05, No Iterations 2
smoothSolver:  Solving for Uy, Initial residual = 0.021808, Final residual = 0.00204415, No Iterations 2
smoothSolver:  Solving for Uz, Initial residual = 0.0135809, Final residual = 0.00110406, No Iterations 2
GAMG:  Solving for p, Initial residual = 0.0140483, Final residual = 0.000695397, No Iterations 11
GAMG:  Solving for p, Initial residual = 0.022542, Final residual = 0.000815886, No Iterations 3
GAMG:  Solving for p, Initial residual = 0.00734954, Final residual = 0.000347522, No Iterations 7
time step continuity errors : sum local = 5.1131e-07, global = 6.1245e-08, cumulative = 4.24336e-05
smoothSolver:  Solving for epsilon, Initial residual = 0.0248231, Final residual = 0.000332033, No Iterations 1
smoothSolver:  Solving for k, Initial residual = 0.0013851, Final residual = 3.42581e-05, No Iterations 2
ExecutionTime = 92.9005 s  ClockTime = 96 s

Time = 78s

smoothSolver:  Solving for Ux, Initial residual = 0.000792521, Final residual = 6.57352e-05, No Iterations 2
smoothSolver:  Solving for Uy, Initial residual = 0.0217799, Final residual = 0.00203581, No Iterations 2
smoothSolver:  Solving for Uz, Initial residual = 0.0130912, Final residual = 0.00107914, No Iterations 2
GAMG:  Solving for p, Initial residual = 0.0135135, Final residual = 0.000674238, No Iterations 12
GAMG:  Solving for p, Initial residual = 0.0220284, Final residual = 0.000788259, No Iterations 3
GAMG:  Solving for p, Initial residual = 0.00720165, Final residual = 0.000339481, No Iterations 6
time step continuity errors : sum local = 4.97517e-07, global = -7.26636e-08, cumulative = 4.2361e-05
smoothSolver:  Solving for epsilon, Initial residual = 0.0248686, Final residual = 0.000332968, No Iterations 1
smoothSolver:  Solving for k, Initial residual = 0.00134467, Final residual = 3.31897e-05, No Iterations 2
ExecutionTime = 93.6181 s  ClockTime = 97 s

Time = 79s

smoothSolver:  Solving for Ux, Initial residual = 0.000777972, Final residual = 6.4376e-05, No Iterations 2
smoothSolver:  Solving for Uy, Initial residual = 0.0217854, Final residual = 0.00202613, No Iterations 2
smoothSolver:  Solving for Uz, Initial residual = 0.0126936, Final residual = 0.00105644, No Iterations 2
GAMG:  Solving for p, Initial residual = 0.0130729, Final residual = 0.000575812, No Iterations 15
GAMG:  Solving for p, Initial residual = 0.0222923, Final residual = 0.00110166, No Iterations 2
GAMG:  Solving for p, Initial residual = 0.00735492, Final residual = 0.000366544, No Iterations 5
time step continuity errors : sum local = 5.34922e-07, global = 5.32614e-08, cumulative = 4.24142e-05
smoothSolver:  Solving for epsilon, Initial residual = 0.0249263, Final residual = 0.000333982, No Iterations 1
smoothSolver:  Solving for k, Initial residual = 0.00130861, Final residual = 3.2298e-05, No Iterations 2
ExecutionTime = 94.3525 s  ClockTime = 97 s

Time = 80s

smoothSolver:  Solving for Ux, Initial residual = 0.000763926, Final residual = 6.29844e-05, No Iterations 2
smoothSolver:  Solving for Uy, Initial residual = 0.0218185, Final residual = 0.0020178, No Iterations 2
smoothSolver:  Solving for Uz, Initial residual = 0.0125152, Final residual = 0.00103587, No Iterations 2
GAMG:  Solving for p, Initial residual = 0.0126276, Final residual = 0.000592565, No Iterations 15
GAMG:  Solving for p, Initial residual = 0.02203, Final residual = 0.000786499, No Iterations 3
[...]
smoothSolver:  Solving for Uz, Initial residual = 4.07206e-06, Final residual = 4.02877e-07, No Iterations 1
GAMG:  Solving for p, Initial residual = 5.48099e-06, Final residual = 8.46233e-07, No Iterations 3
GAMG:  Solving for p, Initial residual = 3.17162e-06, Final residual = 7.19911e-07, No Iterations 1
GAMG:  Solving for p, Initial residual = 1.2735e-06, Final residual = 5.28937e-07, No Iterations 1
time step continuity errors : sum local = 6.72446e-10, global = 7.11074e-15, cumulative = 4.35358e-05
smoothSolver:  Solving for epsilon, Initial residual = 0.0278383, Final residual = 0.000377611, No Iterations 1
smoothSolver:  Solving for k, Initial residual = 3.20507e-07, Final residual = 3.46717e-08, No Iterations 1
ExecutionTime = 552.557 s  ClockTime = 561 s

Time = 982s

smoothSolver:  Solving for Ux, Initial residual = 9.94441e-08, Final residual = 9.94441e-08, No Iterations 0
smoothSolver:  Solving for Uy, Initial residual = 1.79759e-06, Final residual = 6.05029e-08, No Iterations 2
smoothSolver:  Solving for Uz, Initial residual = 3.98079e-06, Final residual = 8.91824e-08, No Iterations 2
GAMG:  Solving for p, Initial residual = 6.02044e-06, Final residual = 9.37593e-07, No Iterations 3
GAMG:  Solving for p, Initial residual = 3.29981e-06, Final residual = 7.95016e-07, No Iterations 1
GAMG:  Solving for p, Initial residual = 1.3578e-06, Final residual = 5.88261e-07, No Iterations 1
time step continuity errors : sum local = 7.4787e-10, global = 8.29521e-13, cumulative = 4.35358e-05
smoothSolver:  Solving for epsilon, Initial residual = 0.0278383, Final residual = 0.000377612, No Iterations 1
smoothSolver:  Solving for k, Initial residual = 3.27113e-07, Final residual = 3.48911e-08, No Iterations 1
ExecutionTime = 552.982 s  ClockTime = 561 s

Time = 983s

smoothSolver:  Solving for Ux, Initial residual = 1.09213e-07, Final residual = 9.5504e-09, No Iterations 1
smoothSolver:  Solving for Uy, Initial residual = 1.78134e-06, Final residual = 6.15463e-08, No Iterations 2
smoothSolver:  Solving for Uz, Initial residual = 3.9936e-06, Final residual = 9.37402e-08, No Iterations 2
GAMG:  Solving for p, Initial residual = 5.45202e-06, Final residual = 7.97203e-07, No Iterations 3
GAMG:  Solving for p, Initial residual = 3.2148e-06, Final residual = 7.04641e-07, No Iterations 1
GAMG:  Solving for p, Initial residual = 1.29156e-06, Final residual = 5.27119e-07, No Iterations 1
time step continuity errors : sum local = 6.70135e-10, global = 1.76802e-12, cumulative = 4.35358e-05
smoothSolver:  Solving for epsilon, Initial residual = 0.0278383, Final residual = 0.000377611, No Iterations 1
smoothSolver:  Solving for k, Initial residual = 3.22028e-07, Final residual = 3.49683e-08, No Iterations 1
ExecutionTime = 553.409 s  ClockTime = 562 s

Time = 984s

smoothSolver:  Solving for Ux, Initial residual = 9.63734e-08, Final residual = 9.63734e-08, No Iterations 0
smoothSolver:  Solving for Uy, Initial residual = 1.81028e-06, Final residual = 6.17225e-08, No Iterations 2
smoothSolver:  Solving for Uz, Initial residual = 4.00976e-06, Final residual = 9.04975e-08, No Iterations 2
GAMG:  Solving for p, Initial residual = 5.53805e-06, Final residual = 8.92743e-07, No Iterations 3
GAMG:  Solving for p, Initial residual = 3.26585e-06, Final residual = 7.54178e-07, No Iterations 1
GAMG:  Solving for p, Initial residual = 1.35322e-06, Final residual = 5.62809e-07, No Iterations 1
time step continuity errors : sum local = 7.15513e-10, global = 1.48853e-12, cumulative = 4.35358e-05
smoothSolver:  Solving for epsilon, Initial residual = 0.0278383, Final residual = 0.000377609, No Iterations 1
smoothSolver:  Solving for k, Initial residual = 3.29004e-07, Final residual = 3.4987e-08, No Iterations 1
ExecutionTime = 553.832 s  ClockTime = 562 s

Time = 985s

smoothSolver:  Solving for Ux, Initial residual = 1.03636e-07, Final residual = 9.01206e-09, No Iterations 1
smoothSolver:  Solving for Uy, Initial residual = 1.79796e-06, Final residual = 6.11098e-08, No Iterations 2
smoothSolver:  Solving for Uz, Initial residual = 3.94838e-06, Final residual = 8.91728e-08, No Iterations 2
GAMG:  Solving for p, Initial residual = 5.29332e-06, Final residual = 8.7869e-07, No Iterations 3
GAMG:  Solving for p, Initial residual = 3.35281e-06, Final residual = 7.47665e-07, No Iterations 1
GAMG:  Solving for p, Initial residual = 1.37897e-06, Final residual = 5.57655e-07, No Iterations 1
time step continuity errors : sum local = 7.08956e-10, global = 1.8006e-12, cumulative = 4.35358e-05
smoothSolver:  Solving for epsilon, Initial residual = 0.0278384, Final residual = 0.000377612, No Iterations 1
smoothSolver:  Solving for k, Initial residual = 3.22329e-07, Final residual = 3.4931e-08, No Iterations 1
ExecutionTime = 554.261 s  ClockTime = 562 s

Time = 986s

smoothSolver:  Solving for Ux, Initial residual = 9.1226e-08, Final residual = 9.1226e-08, No Iterations 0
smoothSolver:  Solving for Uy, Initial residual = 1.87932e-06, Final residual = 6.1718e-08, No Iterations 2
smoothSolver:  Solving for Uz, Initial residual = 4.09218e-06, Final residual = 9.06672e-08, No Iterations 2
GAMG:  Solving for p, Initial residual = 5.49579e-06, Final residual = 8.7009e-07, No Iterations 3
GAMG:  Solving for p, Initial residual = 3.33665e-06, Final residual = 7.34706e-07, No Iterations 1
GAMG:  Solving for p, Initial residual = 1.34032e-06, Final residual = 5.40445e-07, No Iterations 1
time step continuity errors : sum local = 6.87081e-10, global = 5.85365e-13, cumulative = 4.35358e-05
smoothSolver:  Solving for epsilon, Initial residual = 0.0278383, Final residual = 0.000377612, No Iterations 1
smoothSolver:  Solving for k, Initial residual = 3.29154e-07, Final residual = 3.51637e-08, No Iterations 1
ExecutionTime = 554.683 s  ClockTime = 563 s

Time = 987s

smoothSolver:  Solving for Ux, Initial residual = 1.02724e-07, Final residual = 8.86944e-09, No Iterations 1
smoothSolver:  Solving for Uy, Initial residual = 1.84167e-06, Final residual = 6.06394e-08, No Iterations 2
smoothSolver:  Solving for Uz, Initial residual = 4.08411e-06, Final residual = 3.94949e-07, No Iterations 1
GAMG:  Solving for p, Initial residual = 5.22688e-06, Final residual = 7.9011e-07, No Iterations 3
GAMG:  Solving for p, Initial residual = 3.14201e-06, Final residual = 6.91498e-07, No Iterations 1
GAMG:  Solving for p, Initial residual = 1.25353e-06, Final residual = 5.14002e-07, No Iterations 1
time step continuity errors : sum local = 6.53458e-10, global = -1.86924e-13, cumulative = 4.35358e-05
smoothSolver:  Solving for epsilon, Initial residual = 0.0278383, Final residual = 0.000377611, No Iterations 1
smoothSolver:  Solving for k, Initial residual = 3.22537e-07, Final residual = 3.49904e-08, No Iterations 1
ExecutionTime = 555.107 s  ClockTime = 563 s

Time = 988s

smoothSolver:  Solving for Ux, Initial residual = 8.85024e-08, Final residual = 8.85024e-08, No Iterations 0
smoothSolver:  Solving for Uy, Initial residual = 1.84543e-06, Final residual = 6.16679e-08, No Iterations 2
smoothSolver:  Solving for Uz, Initial residual = 4.0057e-06, Final residual = 3.94648e-07, No Iterations 1
GAMG:  Solving for p, Initial residual = 5.56981e-06, Final residual = 8.36355e-07, No Iterations 3
GAMG:  Solving for p, Initial residual = 3.16535e-06, Final residual = 7.23034e-07, No Iterations 1
GAMG:  Solving for p, Initial residual = 1.28488e-06, Final residual = 5.32675e-07, No Iterations 1
time step continuity errors : sum local = 6.77203e-10, global = -1.18811e-12, cumulative = 4.35358e-05
smoothSolver:  Solving for epsilon, Initial residual = 0.0278383, Final residual = 0.000377613, No Iterations 1
smoothSolver:  Solving for k, Initial residual = 3.28473e-07, Final residual = 3.5129e-08, No Iterations 1
ExecutionTime = 555.524 s  ClockTime = 564 s

Time = 989s

smoothSolver:  Solving for Ux, Initial residual = 9.74017e-08, Final residual = 9.74017e-08, No Iterations 0
smoothSolver:  Solving for Uy, Initial residual = 1.7955e-06, Final residual = 6.09976e-08, No Iterations 2
smoothSolver:  Solving for Uz, Initial residual = 3.92265e-06, Final residual = 3.89874e-07, No Iterations 1
GAMG:  Solving for p, Initial residual = 5.81313e-06, Final residual = 8.94831e-07, No Iterations 3
GAMG:  Solving for p, Initial residual = 3.22554e-06, Final residual = 7.61262e-07, No Iterations 1
GAMG:  Solving for p, Initial residual = 1.3211e-06, Final residual = 5.6429e-07, No Iterations 1
time step continuity errors : sum local = 7.17391e-10, global = -1.31149e-12, cumulative = 4.35358e-05
smoothSolver:  Solving for epsilon, Initial residual = 0.0278383, Final residual = 0.000377611, No Iterations 1
smoothSolver:  Solving for k, Initial residual = 3.19329e-07, Final residual = 3.45735e-08, No Iterations 1
ExecutionTime = 555.943 s  ClockTime = 564 s

Time = 990s

smoothSolver:  Solving for Ux, Initial residual = 1.07455e-07, Final residual = 9.43535e-09, No Iterations 1
smoothSolver:  Solving for Uy, Initial residual = 1.75096e-06, Final residual = 6.0679e-08, No Iterations 2
smoothSolver:  Solving for Uz, Initial residual = 3.94943e-06, Final residual = 3.91306e-07, No Iterations 1
GAMG:  Solving for p, Initial residual = 5.28672e-06, Final residual = 8.30714e-07, No Iterations 3
GAMG:  Solving for p, Initial residual = 3.21084e-06, Final residual = 7.24038e-07, No Iterations 1
GAMG:  Solving for p, Initial residual = 1.33136e-06, Final residual = 5.43316e-07, No Iterations 1
time step continuity errors : sum local = 6.90731e-10, global = -2.27249e-12, cumulative = 4.35358e-05
smoothSolver:  Solving for epsilon, Initial residual = 0.0278383, Final residual = 0.000377608, No Iterations 1
smoothSolver:  Solving for k, Initial residual = 3.30472e-07, Final residual = 3.54665e-08, No Iterations 1
ExecutionTime = 556.366 s  ClockTime = 565 s

Time = 991s

smoothSolver:  Solving for Ux, Initial residual = 9.37878e-08, Final residual = 9.37878e-08, No Iterations 0
smoothSolver:  Solving for Uy, Initial residual = 1.77115e-06, Final residual = 6.06435e-08, No Iterations 2
smoothSolver:  Solving for Uz, Initial residual = 3.94683e-06, Final residual = 9.21953e-08, No Iterations 2
GAMG:  Solving for p, Initial residual = 5.39872e-06, Final residual = 9.1425e-07, No Iterations 3
GAMG:  Solving for p, Initial residual = 3.29727e-06, Final residual = 7.62249e-07, No Iterations 1
GAMG:  Solving for p, Initial residual = 1.37278e-06, Final residual = 5.65282e-07, No Iterations 1
time step continuity errors : sum local = 7.18653e-10, global = -1.79487e-12, cumulative = 4.35358e-05
smoothSolver:  Solving for epsilon, Initial residual = 0.0278384, Final residual = 0.000377612, No Iterations 1
smoothSolver:  Solving for k, Initial residual = 3.21084e-07, Final residual = 3.46815e-08, No Iterations 1
ExecutionTime = 556.791 s  ClockTime = 565 s

Time = 992s

smoothSolver:  Solving for Ux, Initial residual = 1.0096e-07, Final residual = 9.00876e-09, No Iterations 1
smoothSolver:  Solving for Uy, Initial residual = 1.7999e-06, Final residual = 5.97949e-08, No Iterations 2
smoothSolver:  Solving for Uz, Initial residual = 3.98529e-06, Final residual = 9.2314e-08, No Iterations 2
GAMG:  Solving for p, Initial residual = 5.26248e-06, Final residual = 8.41752e-07, No Iterations 3
GAMG:  Solving for p, Initial residual = 3.29676e-06, Final residual = 7.19225e-07, No Iterations 1
GAMG:  Solving for p, Initial residual = 1.33148e-06, Final residual = 5.37355e-07, No Iterations 1
time step continuity errors : sum local = 6.83153e-10, global = -1.8133e-12, cumulative = 4.35358e-05
smoothSolver:  Solving for epsilon, Initial residual = 0.0278383, Final residual = 0.000377613, No Iterations 1
smoothSolver:  Solving for k, Initial residual = 3.30973e-07, Final residual = 3.54421e-08, No Iterations 1
ExecutionTime = 557.22 s  ClockTime = 565 s

Time = 993s

smoothSolver:  Solving for Ux, Initial residual = 9.13757e-08, Final residual = 9.13757e-08, No Iterations 0
smoothSolver:  Solving for Uy, Initial residual = 1.86913e-06, Final residual = 6.13885e-08, No Iterations 2
smoothSolver:  Solving for Uz, Initial residual = 4.11573e-06, Final residual = 4.10966e-07, No Iterations 1
GAMG:  Solving for p, Initial residual = 5.45132e-06, Final residual = 8.40284e-07, No Iterations 3
GAMG:  Solving for p, Initial residual = 3.21779e-06, Final residual = 7.13607e-07, No Iterations 1
GAMG:  Solving for p, Initial residual = 1.28858e-06, Final residual = 5.24914e-07, No Iterations 1
time step continuity errors : sum local = 6.67331e-10, global = -3.5666e-13, cumulative = 4.35358e-05
smoothSolver:  Solving for epsilon, Initial residual = 0.0278384, Final residual = 0.000377612, No Iterations 1
smoothSolver:  Solving for k, Initial residual = 3.211e-07, Final residual = 3.48707e-08, No Iterations 1
ExecutionTime = 557.636 s  ClockTime = 566 s

Time = 994s

smoothSolver:  Solving for Ux, Initial residual = 1.00901e-07, Final residual = 8.79086e-09, No Iterations 1
smoothSolver:  Solving for Uy, Initial residual = 1.83272e-06, Final residual = 6.06964e-08, No Iterations 2
smoothSolver:  Solving for Uz, Initial residual = 4.07281e-06, Final residual = 3.9949e-07, No Iterations 1
GAMG:  Solving for p, Initial residual = 5.30326e-06, Final residual = 8.07818e-07, No Iterations 3
GAMG:  Solving for p, Initial residual = 3.08831e-06, Final residual = 7.02592e-07, No Iterations 1
GAMG:  Solving for p, Initial residual = 1.24076e-06, Final residual = 5.23697e-07, No Iterations 1
time step continuity errors : sum local = 6.65788e-10, global = 6.45856e-13, cumulative = 4.35358e-05
smoothSolver:  Solving for epsilon, Initial residual = 0.0278383, Final residual = 0.000377612, No Iterations 1
smoothSolver:  Solving for k, Initial residual = 3.30686e-07, Final residual = 3.53181e-08, No Iterations 1
ExecutionTime = 558.061 s  ClockTime = 566 s

Time = 995s

smoothSolver:  Solving for Ux, Initial residual = 8.75733e-08, Final residual = 8.75733e-08, No Iterations 0
smoothSolver:  Solving for Uy, Initial residual = 1.8311e-06, Final residual = 6.12491e-08, No Iterations 2
smoothSolver:  Solving for Uz, Initial residual = 3.98237e-06, Final residual = 9.09563e-08, No Iterations 2
GAMG:  Solving for p, Initial residual = 5.65844e-06, Final residual = 8.55298e-07, No Iterations 3
GAMG:  Solving for p, Initial residual = 3.20459e-06, Final residual = 7.40346e-07, No Iterations 1
GAMG:  Solving for p, Initial residual = 1.29887e-06, Final residual = 5.49771e-07, No Iterations 1
time step continuity errors : sum local = 6.98933e-10, global = 1.91422e-12, cumulative = 4.35358e-05
smoothSolver:  Solving for epsilon, Initial residual = 0.0278383, Final residual = 0.000377613, No Iterations 1
smoothSolver:  Solving for k, Initial residual = 3.20423e-07, Final residual = 3.48372e-08, No Iterations 1
ExecutionTime = 558.485 s  ClockTime = 567 s

Time = 996s

smoothSolver:  Solving for Ux, Initial residual = 9.90068e-08, Final residual = 9.90068e-08, No Iterations 0
smoothSolver:  Solving for Uy, Initial residual = 1.80006e-06, Final residual = 6.05309e-08, No Iterations 2
smoothSolver:  Solving for Uz, Initial residual = 3.88754e-06, Final residual = 8.91562e-08, No Iterations 2
GAMG:  Solving for p, Initial residual = 5.77054e-06, Final residual = 8.76751e-07, No Iterations 3
GAMG:  Solving for p, Initial residual = 3.19301e-06, Final residual = 7.47598e-07, No Iterations 1
GAMG:  Solving for p, Initial residual = 1.31233e-06, Final residual = 5.58762e-07, No Iterations 1
time step continuity errors : sum local = 7.10368e-10, global = 1.87504e-12, cumulative = 4.35358e-05
smoothSolver:  Solving for epsilon, Initial residual = 0.0278383, Final residual = 0.000377613, No Iterations 1
smoothSolver:  Solving for k, Initial residual = 3.27709e-07, Final residual = 3.50119e-08, No Iterations 1
ExecutionTime = 558.909 s  ClockTime = 567 s

Time = 997s

smoothSolver:  Solving for Ux, Initial residual = 1.07679e-07, Final residual = 9.31401e-09, No Iterations 1
smoothSolver:  Solving for Uy, Initial residual = 1.73448e-06, Final residual = 5.98678e-08, No Iterations 2
smoothSolver:  Solving for Uz, Initial residual = 3.87287e-06, Final residual = 3.76322e-07, No Iterations 1
GAMG:  Solving for p, Initial residual = 5.28026e-06, Final residual = 8.76559e-07, No Iterations 3
GAMG:  Solving for p, Initial residual = 3.23969e-06, Final residual = 7.47016e-07, No Iterations 1
GAMG:  Solving for p, Initial residual = 1.36188e-06, Final residual = 5.64255e-07, No Iterations 1
time step continuity errors : sum local = 7.17346e-10, global = 2.82979e-12, cumulative = 4.35358e-05
smoothSolver:  Solving for epsilon, Initial residual = 0.0278384, Final residual = 0.000377612, No Iterations 1
smoothSolver:  Solving for k, Initial residual = 3.22402e-07, Final residual = 3.51054e-08, No Iterations 1
ExecutionTime = 559.333 s  ClockTime = 568 s

Time = 998s

smoothSolver:  Solving for Ux, Initial residual = 9.14435e-08, Final residual = 9.14435e-08, No Iterations 0
smoothSolver:  Solving for Uy, Initial residual = 1.79652e-06, Final residual = 6.01323e-08, No Iterations 2
smoothSolver:  Solving for Uz, Initial residual = 3.93355e-06, Final residual = 3.92788e-07, No Iterations 1
GAMG:  Solving for p, Initial residual = 5.32538e-06, Final residual = 9.13005e-07, No Iterations 3
GAMG:  Solving for p, Initial residual = 3.25438e-06, Final residual = 7.59458e-07, No Iterations 1
GAMG:  Solving for p, Initial residual = 1.36227e-06, Final residual = 5.6375e-07, No Iterations 1
time step continuity errors : sum local = 7.16709e-10, global = 2.28032e-12, cumulative = 4.35358e-05
smoothSolver:  Solving for epsilon, Initial residual = 0.0278384, Final residual = 0.000377611, No Iterations 1
smoothSolver:  Solving for k, Initial residual = 3.29398e-07, Final residual = 3.51189e-08, No Iterations 1
ExecutionTime = 559.752 s  ClockTime = 568 s

Time = 999s

smoothSolver:  Solving for Ux, Initial residual = 1.01602e-07, Final residual = 9.00065e-09, No Iterations 1
smoothSolver:  Solving for Uy, Initial residual = 1.80263e-06, Final residual = 5.93329e-08, No Iterations 2
smoothSolver:  Solving for Uz, Initial residual = 4.07203e-06, Final residual = 4.03836e-07, No Iterations 1
GAMG:  Solving for p, Initial residual = 5.21685e-06, Final residual = 7.99586e-07, No Iterations 3
GAMG:  Solving for p, Initial residual = 3.18119e-06, Final residual = 6.93036e-07, No Iterations 1
GAMG:  Solving for p, Initial residual = 1.28382e-06, Final residual = 5.20093e-07, No Iterations 1
time step continuity errors : sum local = 6.61203e-10, global = 1.77907e-12, cumulative = 4.35358e-05
smoothSolver:  Solving for epsilon, Initial residual = 0.0278383, Final residual = 0.000377611, No Iterations 1
smoothSolver:  Solving for k, Initial residual = 3.2267e-07, Final residual = 3.50209e-08, No Iterations 1
ExecutionTime = 560.181 s  ClockTime = 568 s

Time = 1000s

smoothSolver:  Solving for Ux, Initial residual = 9.07216e-08, Final residual = 9.07216e-08, No Iterations 0
smoothSolver:  Solving for Uy, Initial residual = 1.86131e-06, Final residual = 6.10181e-08, No Iterations 2
smoothSolver:  Solving for Uz, Initial residual = 4.14265e-06, Final residual = 9.13965e-08, No Iterations 2
GAMG:  Solving for p, Initial residual = 5.58806e-06, Final residual = 8.47848e-07, No Iterations 3
GAMG:  Solving for p, Initial residual = 3.20089e-06, Final residual = 7.16787e-07, No Iterations 1
GAMG:  Solving for p, Initial residual = 1.27802e-06, Final residual = 5.27154e-07, No Iterations 1
time step continuity errors : sum local = 6.70184e-10, global = -7.44244e-14, cumulative = 4.35358e-05
smoothSolver:  Solving for epsilon, Initial residual = 0.0278383, Final residual = 0.000377613, No Iterations 1
smoothSolver:  Solving for k, Initial residual = 3.2914e-07, Final residual = 3.52644e-08, No Iterations 1
ExecutionTime = 561.29 s  ClockTime = 570 s

End

