/*---------------------------------------------------------------------------*\
  =========                 |
  \\      /  F ield         | OpenFOAM: The Open Source CFD Toolbox
   \\    /   O peration     | Website:  https://openfoam.org
    \\  /    A nd           | Version:  13
     \\/     M anipulation  |
\*---------------------------------------------------------------------------*/
Build  : 13-441953dfbb42
Exec   : foamRun -solver incompressibleFluid
Date   : May 12 2026
Time   : 14:55:54
Host   : "openfoam"
PID    : 2474
I/O    : uncollated
Case   : /home/ubuntu/OpenFOAM/ubuntu-v13/run/wStockTest/rans/summer
nProcs : 1
sigFpe : Floating point exception trapping - not supported on this platform
fileModificationChecking : Monitoring run-time modified files using timeStampMaster (fileModificationSkew 10)
allowSystemOperations : Allowing user-supplied system call operations

// * * * * * * * * * * * * * * * * * * * * * * * * * * * * * * * * * * * * * //
Create time

Create mesh for time = 0

Selecting solver incompressibleFluid
Selecting viscosity model constant
Selecting turbulence model type RAS
    Selecting RAS turbulence model kEpsilon
No MRF models present


SIMPLE: Convergence criteria found
        p: tolerance 1e-05
        U: tolerance 1e-06
        k: tolerance 1e-06
        epsilon: tolerance 1e-06


SIMPLE: Operating solver in steady-state mode with 1 outer corrector
SIMPLE: Operating solver in SIMPLE mode



Starting time loop

Time = 1s

smoothSolver:  Solving for Ux, Initial residual = 1, Final residual = 0.0270076, No Iterations 2
smoothSolver:  Solving for Uy, Initial residual = 1, Final residual = 0.0516003, No Iterations 2
smoothSolver:  Solving for Uz, Initial residual = 1, Final residual = 0.0257318, No Iterations 2
GAMG:  Solving for p, Initial residual = 1, Final residual = 0.0483047, No Iterations 89
GAMG:  Solving for p, Initial residual = 0.218838, Final residual = 0.0096182, No Iterations 2
GAMG:  Solving for p, Initial residual = 0.0554151, Final residual = 0.00244972, No Iterations 3
time step continuity errors : sum local = 0.000302486, global = 1.97345e-05, cumulative = 1.97345e-05
smoothSolver:  Solving for epsilon, Initial residual = 0.323032, Final residual = 0.00311024, No Iterations 1
smoothSolver:  Solving for k, Initial residual = 1, Final residual = 0.0206277, No Iterations 1
ExecutionTime = 2.78874 s  ClockTime = 3 s

Time = 2s

smoothSolver:  Solving for Ux, Initial residual = 0.535004, Final residual = 0.0489311, No Iterations 1
smoothSolver:  Solving for Uy, Initial residual = 0.59004, Final residual = 0.0247035, No Iterations 2
smoothSolver:  Solving for Uz, Initial residual = 0.314529, Final residual = 0.0152337, No Iterations 2
GAMG:  Solving for p, Initial residual = 0.0513528, Final residual = 0.00242902, No Iterations 60
GAMG:  Solving for p, Initial residual = 0.128729, Final residual = 0.00405553, No Iterations 3
GAMG:  Solving for p, Initial residual = 0.0369282, Final residual = 0.00168483, No Iterations 4
time step continuity errors : sum local = 0.000158423, global = 2.76532e-05, cumulative = 4.73877e-05
smoothSolver:  Solving for epsilon, Initial residual = 0.137491, Final residual = 0.000298248, No Iterations 1
smoothSolver:  Solving for k, Initial residual = 0.201015, Final residual = 0.00588135, No Iterations 1
ExecutionTime = 4.32485 s  ClockTime = 4 s

Time = 3s

smoothSolver:  Solving for Ux, Initial residual = 0.2947, Final residual = 0.0227084, No Iterations 1
smoothSolver:  Solving for Uy, Initial residual = 0.307336, Final residual = 0.0110569, No Iterations 2
smoothSolver:  Solving for Uz, Initial residual = 0.172748, Final residual = 0.00783303, No Iterations 2
GAMG:  Solving for p, Initial residual = 0.0514219, Final residual = 0.00240928, No Iterations 66
GAMG:  Solving for p, Initial residual = 0.357582, Final residual = 0.0170063, No Iterations 2
GAMG:  Solving for p, Initial residual = 0.122922, Final residual = 0.00591446, No Iterations 3
time step continuity errors : sum local = 0.000311022, global = -1.53436e-05, cumulative = 3.20441e-05
smoothSolver:  Solving for epsilon, Initial residual = 0.0289426, Final residual = 0.000117109, No Iterations 1
smoothSolver:  Solving for k, Initial residual = 0.0725304, Final residual = 0.00341487, No Iterations 1
ExecutionTime = 5.97158 s  ClockTime = 6 s

Time = 4s

smoothSolver:  Solving for Ux, Initial residual = 0.1034, Final residual = 0.00805689, No Iterations 1
smoothSolver:  Solving for Uy, Initial residual = 0.144973, Final residual = 0.00453966, No Iterations 2
smoothSolver:  Solving for Uz, Initial residual = 0.144634, Final residual = 0.00538473, No Iterations 2
GAMG:  Solving for p, Initial residual = 0.0741349, Final residual = 0.00370518, No Iterations 86
GAMG:  Solving for p, Initial residual = 0.272032, Final residual = 0.0119641, No Iterations 2
GAMG:  Solving for p, Initial residual = 0.0728359, Final residual = 0.00316359, No Iterations 3
time step continuity errors : sum local = 0.000397687, global = 2.55806e-05, cumulative = 5.76247e-05
smoothSolver:  Solving for epsilon, Initial residual = 0.0125742, Final residual = 0.000111704, No Iterations 1
smoothSolver:  Solving for k, Initial residual = 0.0542994, Final residual = 0.00267784, No Iterations 1
ExecutionTime = 7.93421 s  ClockTime = 8 s

Time = 5s

smoothSolver:  Solving for Ux, Initial residual = 0.117522, Final residual = 0.00820473, No Iterations 1
smoothSolver:  Solving for Uy, Initial residual = 0.180605, Final residual = 0.0045606, No Iterations 2
smoothSolver:  Solving for Uz, Initial residual = 0.249444, Final residual = 0.0101628, No Iterations 2
GAMG:  Solving for p, Initial residual = 0.104961, Final residual = 0.00523479, No Iterations 45
GAMG:  Solving for p, Initial residual = 0.163675, Final residual = 0.00550229, No Iterations 3
GAMG:  Solving for p, Initial residual = 0.0429839, Final residual = 0.00181713, No Iterations 7
time step continuity errors : sum local = 0.000107476, global = 1.29938e-05, cumulative = 7.06185e-05
smoothSolver:  Solving for epsilon, Initial residual = 0.00895034, Final residual = 0.000145741, No Iterations 1
smoothSolver:  Solving for k, Initial residual = 0.0572118, Final residual = 0.00278669, No Iterations 1
ExecutionTime = 9.23202 s  ClockTime = 9 s

Time = 6s

smoothSolver:  Solving for Ux, Initial residual = 0.192516, Final residual = 0.0145419, No Iterations 1
smoothSolver:  Solving for Uy, Initial residual = 0.25325, Final residual = 0.00679706, No Iterations 2
smoothSolver:  Solving for Uz, Initial residual = 0.184898, Final residual = 0.00808306, No Iterations 2
GAMG:  Solving for p, Initial residual = 0.0701317, Final residual = 0.00344928, No Iterations 48
GAMG:  Solving for p, Initial residual = 0.269143, Final residual = 0.00792542, No Iterations 3
GAMG:  Solving for p, Initial residual = 0.0836702, Final residual = 0.00330335, No Iterations 5
time step continuity errors : sum local = 0.000127083, global = -1.55283e-05, cumulative = 5.50901e-05
smoothSolver:  Solving for epsilon, Initial residual = 0.00808579, Final residual = 0.000231752, No Iterations 1
smoothSolver:  Solving for k, Initial residual = 0.0427053, Final residual = 0.0031623, No Iterations 1
ExecutionTime = 10.5782 s  ClockTime = 11 s

Time = 7s

smoothSolver:  Solving for Ux, Initial residual = 0.0853121, Final residual = 0.00833358, No Iterations 1
smoothSolver:  Solving for Uy, Initial residual = 0.190378, Final residual = 0.00573881, No Iterations 2
smoothSolver:  Solving for Uz, Initial residual = 0.169652, Final residual = 0.00810288, No Iterations 2
GAMG:  Solving for p, Initial residual = 0.11469, Final residual = 0.00569916, No Iterations 68
GAMG:  Solving for p, Initial residual = 0.236515, Final residual = 0.0101195, No Iterations 2
GAMG:  Solving for p, Initial residual = 0.061641, Final residual = 0.00300449, No Iterations 3
time step continuity errors : sum local = 0.000227951, global = 1.22791e-05, cumulative = 6.73692e-05
smoothSolver:  Solving for epsilon, Initial residual = 0.00869937, Final residual = 0.000353774, No Iterations 1
smoothSolver:  Solving for k, Initial residual = 0.0256191, Final residual = 0.000723694, No Iterations 2
ExecutionTime = 12.2792 s  ClockTime = 12 s

Time = 8s

smoothSolver:  Solving for Ux, Initial residual = 0.0791373, Final residual = 0.00568442, No Iterations 1
smoothSolver:  Solving for Uy, Initial residual = 0.14448, Final residual = 0.00488612, No Iterations 2
smoothSolver:  Solving for Uz, Initial residual = 0.210498, Final residual = 0.00997675, No Iterations 2
GAMG:  Solving for p, Initial residual = 0.117012, Final residual = 0.00551098, No Iterations 42
GAMG:  Solving for p, Initial residual = 0.182775, Final residual = 0.00594985, No Iterations 3
GAMG:  Solving for p, Initial residual = 0.0476967, Final residual = 0.00219782, No Iterations 5
time step continuity errors : sum local = 8.76471e-05, global = -7.90631e-06, cumulative = 5.94629e-05
smoothSolver:  Solving for epsilon, Initial residual = 0.00999344, Final residual = 0.000447752, No Iterations 1
smoothSolver:  Solving for k, Initial residual = 0.0240581, Final residual = 0.000697189, No Iterations 2
ExecutionTime = 13.5882 s  ClockTime = 14 s

Time = 9s

smoothSolver:  Solving for Ux, Initial residual = 0.0986538, Final residual = 0.00812183, No Iterations 1
smoothSolver:  Solving for Uy, Initial residual = 0.140449, Final residual = 0.00490908, No Iterations 2
smoothSolver:  Solving for Uz, Initial residual = 0.162411, Final residual = 0.00699509, No Iterations 2
GAMG:  Solving for p, Initial residual = 0.0822308, Final residual = 0.00402763, No Iterations 44
GAMG:  Solving for p, Initial residual = 0.215097, Final residual = 0.00775688, No Iterations 3
GAMG:  Solving for p, Initial residual = 0.0705239, Final residual = 0.00305855, No Iterations 9
time step continuity errors : sum local = 6.17441e-05, global = 8.50625e-06, cumulative = 6.79692e-05
smoothSolver:  Solving for epsilon, Initial residual = 0.0115951, Final residual = 0.000446122, No Iterations 1
smoothSolver:  Solving for k, Initial residual = 0.0308362, Final residual = 0.00281619, No Iterations 1
ExecutionTime = 14.9188 s  ClockTime = 15 s

Time = 10s

smoothSolver:  Solving for Ux, Initial residual = 0.0428689, Final residual = 0.000977809, No Iterations 2
smoothSolver:  Solving for Uy, Initial residual = 0.109575, Final residual = 0.00387549, No Iterations 2
smoothSolver:  Solving for Uz, Initial residual = 0.151996, Final residual = 0.00647264, No Iterations 2
GAMG:  Solving for p, Initial residual = 0.115374, Final residual = 0.00537038, No Iterations 64
GAMG:  Solving for p, Initial residual = 0.219297, Final residual = 0.00989948, No Iterations 2
GAMG:  Solving for p, Initial residual = 0.061229, Final residual = 0.00224113, No Iterations 4
time step continuity errors : sum local = 9.33038e-05, global = 1.46286e-05, cumulative = 8.25978e-05
smoothSolver:  Solving for epsilon, Initial residual = 0.0132601, Final residual = 0.000430657, No Iterations 1
smoothSolver:  Solving for k, Initial residual = 0.0251869, Final residual = 0.00235002, No Iterations 1
ExecutionTime = 16.5927 s  ClockTime = 17 s

Time = 11s

smoothSolver:  Solving for Ux, Initial residual = 0.0396957, Final residual = 0.000900643, No Iterations 2
smoothSolver:  Solving for Uy, Initial residual = 0.110613, Final residual = 0.00339535, No Iterations 2
smoothSolver:  Solving for Uz, Initial residual = 0.193196, Final residual = 0.00841805, No Iterations 2
GAMG:  Solving for p, Initial residual = 0.158648, Final residual = 0.00739323, No Iterations 39
GAMG:  Solving for p, Initial residual = 0.220821, Final residual = 0.00737455, No Iterations 3
GAMG:  Solving for p, Initial residual = 0.0579229, Final residual = 0.0024617, No Iterations 7
time step continuity errors : sum local = 5.54343e-05, global = 6.62452e-06, cumulative = 8.92223e-05
smoothSolver:  Solving for epsilon, Initial residual = 0.0133028, Final residual = 0.000365643, No Iterations 1
smoothSolver:  Solving for k, Initial residual = 0.0210683, Final residual = 0.00204465, No Iterations 1
ExecutionTime = 17.8174 s  ClockTime = 18 s

Time = 12s

smoothSolver:  Solving for Ux, Initial residual = 0.0545335, Final residual = 0.00543745, No Iterations 1
smoothSolver:  Solving for Uy, Initial residual = 0.132065, Final residual = 0.00390263, No Iterations 2
smoothSolver:  Solving for Uz, Initial residual = 0.15474, Final residual = 0.00701596, No Iterations 2
GAMG:  Solving for p, Initial residual = 0.117318, Final residual = 0.00582713, No Iterations 34
GAMG:  Solving for p, Initial residual = 0.192518, Final residual = 0.0081672, No Iterations 3
GAMG:  Solving for p, Initial residual = 0.0608975, Final residual = 0.00292223, No Iterations 13
time step continuity errors : sum local = 3.60517e-05, global = -6.05554e-06, cumulative = 8.31668e-05
smoothSolver:  Solving for epsilon, Initial residual = 0.0149768, Final residual = 0.000353646, No Iterations 1
smoothSolver:  Solving for k, Initial residual = 0.0246757, Final residual = 0.00198491, No Iterations 1
ExecutionTime = 19.0516 s  ClockTime = 19 s

Time = 13s

smoothSolver:  Solving for Ux, Initial residual = 0.0276291, Final residual = 0.000836438, No Iterations 2
smoothSolver:  Solving for Uy, Initial residual = 0.116264, Final residual = 0.00411088, No Iterations 2
smoothSolver:  Solving for Uz, Initial residual = 0.133208, Final residual = 0.00632602, No Iterations 2
GAMG:  Solving for p, Initial residual = 0.164369, Final residual = 0.00789275, No Iterations 54
GAMG:  Solving for p, Initial residual = 0.189795, Final residual = 0.00578766, No Iterations 3
GAMG:  Solving for p, Initial residual = 0.0528507, Final residual = 0.00224753, No Iterations 5
time step continuity errors : sum local = 5.68503e-05, global = -6.16621e-06, cumulative = 7.70006e-05
smoothSolver:  Solving for epsilon, Initial residual = 0.0170455, Final residual = 0.00037155, No Iterations 1
smoothSolver:  Solving for k, Initial residual = 0.0209685, Final residual = 0.00190372, No Iterations 1
ExecutionTime = 20.4838 s  ClockTime = 21 s

Time = 14s

smoothSolver:  Solving for Ux, Initial residual = 0.0261151, Final residual = 0.00231651, No Iterations 1
smoothSolver:  Solving for Uy, Initial residual = 0.0808955, Final residual = 0.00361791, No Iterations 2
smoothSolver:  Solving for Uz, Initial residual = 0.150874, Final residual = 0.00676196, No Iterations 2
GAMG:  Solving for p, Initial residual = 0.17135, Final residual = 0.00814169, No Iterations 45
GAMG:  Solving for p, Initial residual = 0.20673, Final residual = 0.00722533, No Iterations 3
GAMG:  Solving for p, Initial residual = 0.0538187, Final residual = 0.00254928, No Iterations 7
time step continuity errors : sum local = 4.26107e-05, global = -4.94389e-06, cumulative = 7.20567e-05
smoothSolver:  Solving for epsilon, Initial residual = 0.0177986, Final residual = 0.00037143, No Iterations 1
smoothSolver:  Solving for k, Initial residual = 0.0153979, Final residual = 0.000352055, No Iterations 2
ExecutionTime = 21.7907 s  ClockTime = 22 s

Time = 15s

smoothSolver:  Solving for Ux, Initial residual = 0.0315814, Final residual = 0.00293523, No Iterations 1
smoothSolver:  Solving for Uy, Initial residual = 0.0812696, Final residual = 0.00349333, No Iterations 2
smoothSolver:  Solving for Uz, Initial residual = 0.134762, Final residual = 0.0054866, No Iterations 2
GAMG:  Solving for p, Initial residual = 0.12492, Final residual = 0.00568033, No Iterations 28
GAMG:  Solving for p, Initial residual = 0.212785, Final residual = 0.0100194, No Iterations 3
GAMG:  Solving for p, Initial residual = 0.0629638, Final residual = 0.00311342, No Iterations 13
time step continuity errors : sum local = 2.31355e-05, global = 3.82146e-06, cumulative = 7.58782e-05
smoothSolver:  Solving for epsilon, Initial residual = 0.0174151, Final residual = 0.000341144, No Iterations 1
smoothSolver:  Solving for k, Initial residual = 0.0159477, Final residual = 0.00150253, No Iterations 1
ExecutionTime = 22.9118 s  ClockTime = 23 s

Time = 16s

smoothSolver:  Solving for Ux, Initial residual = 0.020211, Final residual = 0.000585113, No Iterations 2
smoothSolver:  Solving for Uy, Initial residual = 0.0886537, Final residual = 0.00356459, No Iterations 2
smoothSolver:  Solving for Uz, Initial residual = 0.12244, Final residual = 0.00546327, No Iterations 2
GAMG:  Solving for p, Initial residual = 0.141518, Final residual = 0.00676253, No Iterations 46
GAMG:  Solving for p, Initial residual = 0.161365, Final residual = 0.00603759, No Iterations 3
GAMG:  Solving for p, Initial residual = 0.0483506, Final residual = 0.00222438, No Iterations 9
time step continuity errors : sum local = 3.16811e-05, global = 4.58919e-06, cumulative = 8.04673e-05
smoothSolver:  Solving for epsilon, Initial residual = 0.0175011, Final residual = 0.000303609, No Iterations 1
smoothSolver:  Solving for k, Initial residual = 0.0138112, Final residual = 0.00137175, No Iterations 1
ExecutionTime = 24.2808 s  ClockTime = 24 s

Time = 17s

smoothSolver:  Solving for Ux, Initial residual = 0.0153784, Final residual = 0.000555005, No Iterations 2
smoothSolver:  Solving for Uy, Initial residual = 0.0792433, Final residual = 0.00329654, No Iterations 2
smoothSolver:  Solving for Uz, Initial residual = 0.127497, Final residual = 0.00600438, No Iterations 2
GAMG:  Solving for p, Initial residual = 0.208228, Final residual = 0.0102722, No Iterations 43
GAMG:  Solving for p, Initial residual = 0.213979, Final residual = 0.00823168, No Iterations 3
GAMG:  Solving for p, Initial residual = 0.0604191, Final residual = 0.00294666, No Iterations 9
time step continuity errors : sum local = 2.95748e-05, global = 4.19647e-06, cumulative = 8.46638e-05
smoothSolver:  Solving for epsilon, Initial residual = 0.0172704, Final residual = 0.00027822, No Iterations 1
smoothSolver:  Solving for k, Initial residual = 0.0133654, Final residual = 0.00126976, No Iterations 1
ExecutionTime = 25.6084 s  ClockTime = 26 s

Time = 18s

smoothSolver:  Solving for Ux, Initial residual = 0.0184014, Final residual = 0.00059996, No Iterations 2
smoothSolver:  Solving for Uy, Initial residual = 0.0742263, Final residual = 0.00305764, No Iterations 2
smoothSolver:  Solving for Uz, Initial residual = 0.116597, Final residual = 0.00532756, No Iterations 2
GAMG:  Solving for p, Initial residual = 0.162102, Final residual = 0.00713284, No Iterations 24
GAMG:  Solving for p, Initial residual = 0.223849, Final residual = 0.00999228, No Iterations 3
GAMG:  Solving for p, Initial residual = 0.0679663, Final residual = 0.00290147, No Iterations 11
time step continuity errors : sum local = 1.58075e-05, global = -2.41859e-06, cumulative = 8.22452e-05
smoothSolver:  Solving for epsilon, Initial residual = 0.0175991, Final residual = 0.000274736, No Iterations 1
smoothSolver:  Solving for k, Initial residual = 0.0136788, Final residual = 0.00120971, No Iterations 1
ExecutionTime = 26.6303 s  ClockTime = 27 s

Time = 19s

smoothSolver:  Solving for Ux, Initial residual = 0.0143317, Final residual = 0.000509149, No Iterations 2
smoothSolver:  Solving for Uy, Initial residual = 0.0718846, Final residual = 0.00307537, No Iterations 2
smoothSolver:  Solving for Uz, Initial residual = 0.114855, Final residual = 0.00518538, No Iterations 2
GAMG:  Solving for p, Initial residual = 0.199257, Final residual = 0.00937393, No Iterations 38
GAMG:  Solving for p, Initial residual = 0.149849, Final residual = 0.00625795, No Iterations 3
GAMG:  Solving for p, Initial residual = 0.0468882, Final residual = 0.00212025, No Iterations 13
time step continuity errors : sum local = 1.9614e-05, global = -3.35705e-06, cumulative = 7.88882e-05
smoothSolver:  Solving for epsilon, Initial residual = 0.0182823, Final residual = 0.000280264, No Iterations 1
smoothSolver:  Solving for k, Initial residual = 0.0123123, Final residual = 0.00116124, No Iterations 1
ExecutionTime = 27.9259 s  ClockTime = 28 s

Time = 20s

smoothSolver:  Solving for Ux, Initial residual = 0.0130072, Final residual = 0.000374878, No Iterations 2
smoothSolver:  Solving for Uy, Initial residual = 0.0634409, Final residual = 0.00290701, No Iterations 2
smoothSolver:  Solving for Uz, Initial residual = 0.117399, Final residual = 0.00488345, No Iterations 2
GAMG:  Solving for p, Initial residual = 0.197922, Final residual = 0.00933202, No Iterations 41
GAMG:  Solving for p, Initial residual = 0.194995, Final residual = 0.00756957, No Iterations 3
GAMG:  Solving for p, Initial residual = 0.0560054, Final residual = 0.00275578, No Iterations 9
time step continuity errors : sum local = 2.30983e-05, global = -3.36066e-06, cumulative = 7.55275e-05
smoothSolver:  Solving for epsilon, Initial residual = 0.0188313, Final residual = 0.000283204, No Iterations 1
smoothSolver:  Solving for k, Initial residual = 0.0107389, Final residual = 0.000190134, No Iterations 2
ExecutionTime = 29.2094 s  ClockTime = 29 s

Time = 21s

smoothSolver:  Solving for Ux, Initial residual = 0.0136773, Final residual = 0.000371959, No Iterations 2
smoothSolver:  Solving for Uy, Initial residual = 0.0603526, Final residual = 0.00283231, No Iterations 2
smoothSolver:  Solving for Uz, Initial residual = 0.108246, Final residual = 0.00414803, No Iterations 2
GAMG:  Solving for p, Initial residual = 0.160605, Final residual = 0.00770246, No Iterations 22
GAMG:  Solving for p, Initial residual = 0.243626, Final residual = 0.0106324, No Iterations 3
GAMG:  Solving for p, Initial residual = 0.0676681, Final residual = 0.00308043, No Iterations 9
time step continuity errors : sum local = 1.50776e-05, global = 1.88548e-06, cumulative = 7.7413e-05
smoothSolver:  Solving for epsilon, Initial residual = 0.0188765, Final residual = 0.000275896, No Iterations 1
smoothSolver:  Solving for k, Initial residual = 0.0105187, Final residual = 0.000991353, No Iterations 1
ExecutionTime = 30.2195 s  ClockTime = 30 s

Time = 22s

smoothSolver:  Solving for Ux, Initial residual = 0.0111331, Final residual = 0.000374327, No Iterations 2
smoothSolver:  Solving for Uy, Initial residual = 0.0630249, Final residual = 0.00297719, No Iterations 2
smoothSolver:  Solving for Uz, Initial residual = 0.0997438, Final residual = 0.00427006, No Iterations 2
GAMG:  Solving for p, Initial residual = 0.157909, Final residual = 0.00717125, No Iterations 28
GAMG:  Solving for p, Initial residual = 0.176271, Final residual = 0.0085558, No Iterations 3
GAMG:  Solving for p, Initial residual = 0.0530716, Final residual = 0.00256512, No Iterations 17
time step continuity errors : sum local = 1.27372e-05, global = 1.98269e-06, cumulative = 7.93957e-05
smoothSolver:  Solving for epsilon, Initial residual = 0.0188746, Final residual = 0.000261605, No Iterations 1
smoothSolver:  Solving for k, Initial residual = 0.00975974, Final residual = 0.000924781, No Iterations 1
ExecutionTime = 31.4122 s  ClockTime = 32 s

Time = 23s

smoothSolver:  Solving for Ux, Initial residual = 0.00910979, Final residual = 0.000370295, No Iterations 2
smoothSolver:  Solving for Uy, Initial residual = 0.0633061, Final residual = 0.00306691, No Iterations 2
smoothSolver:  Solving for Uz, Initial residual = 0.093176, Final residual = 0.0042789, No Iterations 2
GAMG:  Solving for p, Initial residual = 0.187536, Final residual = 0.00871971, No Iterations 33
GAMG:  Solving for p, Initial residual = 0.197331, Final residual = 0.00894123, No Iterations 3
GAMG:  Solving for p, Initial residual = 0.0602491, Final residual = 0.00300265, No Iterations 15
time step continuity errors : sum local = 1.37887e-05, global = 2.31911e-06, cumulative = 8.17148e-05
smoothSolver:  Solving for epsilon, Initial residual = 0.0187884, Final residual = 0.000248203, No Iterations 1
smoothSolver:  Solving for k, Initial residual = 0.00902429, Final residual = 0.000862084, No Iterations 1
ExecutionTime = 32.6471 s  ClockTime = 33 s

Time = 24s

smoothSolver:  Solving for Ux, Initial residual = 0.009094, Final residual = 0.000370093, No Iterations 2
smoothSolver:  Solving for Uy, Initial residual = 0.057784, Final residual = 0.00286435, No Iterations 2
smoothSolver:  Solving for Uz, Initial residual = 0.0935547, Final residual = 0.00398902, No Iterations 2
GAMG:  Solving for p, Initial residual = 0.246905, Final residual = 0.0112203, No Iterations 22
GAMG:  Solving for p, Initial residual = 0.215225, Final residual = 0.0105123, No Iterations 3
GAMG:  Solving for p, Initial residual = 0.0676934, Final residual = 0.00327793, No Iterations 12
time step continuity errors : sum local = 1.18883e-05, global = 2.25782e-06, cumulative = 8.39726e-05
smoothSolver:  Solving for epsilon, Initial residual = 0.0188815, Final residual = 0.000245569, No Iterations 1
smoothSolver:  Solving for k, Initial residual = 0.00890074, Final residual = 0.000830174, No Iterations 1
ExecutionTime = 33.7168 s  ClockTime = 34 s

Time = 25s

smoothSolver:  Solving for Ux, Initial residual = 0.00805474, Final residual = 0.00033839, No Iterations 2
smoothSolver:  Solving for Uy, Initial residual = 0.0545928, Final residual = 0.00266221, No Iterations 2
smoothSolver:  Solving for Uz, Initial residual = 0.0934548, Final residual = 0.00386306, No Iterations 2
GAMG:  Solving for p, Initial residual = 0.244354, Final residual = 0.0120395, No Iterations 20
GAMG:  Solving for p, Initial residual = 0.135336, Final residual = 0.00581744, No Iterations 4
GAMG:  Solving for p, Initial residual = 0.041412, Final residual = 0.00189338, No Iterations 16
time step continuity errors : sum local = 8.40358e-06, global = -1.34982e-06, cumulative = 8.26228e-05
smoothSolver:  Solving for epsilon, Initial residual = 0.0192295, Final residual = 0.000250466, No Iterations 1
smoothSolver:  Solving for k, Initial residual = 0.00837502, Final residual = 0.000796249, No Iterations 1
ExecutionTime = 34.8607 s  ClockTime = 35 s

Time = 26s

smoothSolver:  Solving for Ux, Initial residual = 0.00789448, Final residual = 0.000308446, No Iterations 2
smoothSolver:  Solving for Uy, Initial residual = 0.052573, Final residual = 0.00256819, No Iterations 2
smoothSolver:  Solving for Uz, Initial residual = 0.0890039, Final residual = 0.00357996, No Iterations 2
GAMG:  Solving for p, Initial residual = 0.184305, Final residual = 0.00915679, No Iterations 21
GAMG:  Solving for p, Initial residual = 0.12034, Final residual = 0.00578837, No Iterations 4
GAMG:  Solving for p, Initial residual = 0.0392906, Final residual = 0.00182718, No Iterations 26
time step continuity errors : sum local = 7.93804e-06, global = -1.2168e-06, cumulative = 8.1406e-05
smoothSolver:  Solving for epsilon, Initial residual = 0.019683, Final residual = 0.000258419, No Iterations 1
smoothSolver:  Solving for k, Initial residual = 0.00779689, Final residual = 0.000765113, No Iterations 1
ExecutionTime = 36.1376 s  ClockTime = 36 s

Time = 27s

smoothSolver:  Solving for Ux, Initial residual = 0.00771393, Final residual = 0.000295258, No Iterations 2
smoothSolver:  Solving for Uy, Initial residual = 0.0482603, Final residual = 0.0024282, No Iterations 2
smoothSolver:  Solving for Uz, Initial residual = 0.0858412, Final residual = 0.00354375, No Iterations 2
GAMG:  Solving for p, Initial residual = 0.156643, Final residual = 0.0077104, No Iterations 21
GAMG:  Solving for p, Initial residual = 0.157854, Final residual = 0.00714154, No Iterations 4
GAMG:  Solving for p, Initial residual = 0.0501834, Final residual = 0.00234267, No Iterations 20
time step continuity errors : sum local = 8.92308e-06, global = -1.55273e-06, cumulative = 7.98533e-05
smoothSolver:  Solving for epsilon, Initial residual = 0.0200185, Final residual = 0.000262809, No Iterations 1
smoothSolver:  Solving for k, Initial residual = 0.00760108, Final residual = 0.000735521, No Iterations 1
ExecutionTime = 37.2937 s  ClockTime = 37 s

Time = 28s

smoothSolver:  Solving for Ux, Initial residual = 0.00658699, Final residual = 0.000283626, No Iterations 2
smoothSolver:  Solving for Uy, Initial residual = 0.0501, Final residual = 0.00245969, No Iterations 2
smoothSolver:  Solving for Uz, Initial residual = 0.0850841, Final residual = 0.00364615, No Iterations 2
GAMG:  Solving for p, Initial residual = 0.155272, Final residual = 0.00754977, No Iterations 14
GAMG:  Solving for p, Initial residual = 0.161193, Final residual = 0.00625463, No Iterations 4
GAMG:  Solving for p, Initial residual = 0.0483829, Final residual = 0.002259, No Iterations 12
time step continuity errors : sum local = 7.74087e-06, global = 8.88971e-07, cumulative = 8.07422e-05
smoothSolver:  Solving for epsilon, Initial residual = 0.0202547, Final residual = 0.000262571, No Iterations 1
smoothSolver:  Solving for k, Initial residual = 0.00741357, Final residual = 0.000708176, No Iterations 1
ExecutionTime = 38.1665 s  ClockTime = 38 s

Time = 29s

smoothSolver:  Solving for Ux, Initial residual = 0.00566909, Final residual = 0.000274326, No Iterations 2
smoothSolver:  Solving for Uy, Initial residual = 0.0515792, Final residual = 0.00257806, No Iterations 2
smoothSolver:  Solving for Uz, Initial residual = 0.0816267, Final residual = 0.00336865, No Iterations 2
GAMG:  Solving for p, Initial residual = 0.151335, Final residual = 0.00740167, No Iterations 17
GAMG:  Solving for p, Initial residual = 0.117002, Final residual = 0.00565633, No Iterations 6
GAMG:  Solving for p, Initial residual = 0.0400963, Final residual = 0.00193014, No Iterations 22
time step continuity errors : sum local = 5.56501e-06, global = 8.62662e-07, cumulative = 8.16049e-05
smoothSolver:  Solving for epsilon, Initial residual = 0.020455, Final residual = 0.000259305, No Iterations 1
smoothSolver:  Solving for k, Initial residual = 0.00708362, Final residual = 0.000682666, No Iterations 1
ExecutionTime = 39.3165 s  ClockTime = 40 s

Time = 30s

smoothSolver:  Solving for Ux, Initial residual = 0.00547646, Final residual = 0.000268348, No Iterations 2
smoothSolver:  Solving for Uy, Initial residual = 0.0486892, Final residual = 0.00257056, No Iterations 2
smoothSolver:  Solving for Uz, Initial residual = 0.0779405, Final residual = 0.00315274, No Iterations 2
GAMG:  Solving for p, Initial residual = 0.152724, Final residual = 0.00705886, No Iterations 19
GAMG:  Solving for p, Initial residual = 0.118435, Final residual = 0.00535315, No Iterations 6
GAMG:  Solving for p, Initial residual = 0.0429896, Final residual = 0.00200351, No Iterations 28
time step continuity errors : sum local = 5.48588e-06, global = 8.53535e-07, cumulative = 8.24584e-05
smoothSolver:  Solving for epsilon, Initial residual = 0.0206115, Final residual = 0.00025716, No Iterations 1
smoothSolver:  Solving for k, Initial residual = 0.00693561, Final residual = 0.00065904, No Iterations 1
ExecutionTime = 40.6634 s  ClockTime = 41 s

Time = 31s

smoothSolver:  Solving for Ux, Initial residual = 0.00504308, Final residual = 0.000253676, No Iterations 2
smoothSolver:  Solving for Uy, Initial residual = 0.041751, Final residual = 0.00237599, No Iterations 2
smoothSolver:  Solving for Uz, Initial residual = 0.0758277, Final residual = 0.0031583, No Iterations 2
GAMG:  Solving for p, Initial residual = 0.16055, Final residual = 0.00764644, No Iterations 16
GAMG:  Solving for p, Initial residual = 0.123257, Final residual = 0.00591386, No Iterations 4
GAMG:  Solving for p, Initial residual = 0.0420756, Final residual = 0.00208507, No Iterations 17
time step continuity errors : sum local = 5.98461e-06, global = 1.2514e-06, cumulative = 8.37098e-05
smoothSolver:  Solving for epsilon, Initial residual = 0.0207603, Final residual = 0.000257856, No Iterations 1
smoothSolver:  Solving for k, Initial residual = 0.00665203, Final residual = 0.000640764, No Iterations 1
ExecutionTime = 41.6648 s  ClockTime = 42 s

Time = 32s

smoothSolver:  Solving for Ux, Initial residual = 0.00486364, Final residual = 0.00024197, No Iterations 2
smoothSolver:  Solving for Uy, Initial residual = 0.0374347, Final residual = 0.00222422, No Iterations 2
smoothSolver:  Solving for Uz, Initial residual = 0.0705424, Final residual = 0.00297717, No Iterations 2
GAMG:  Solving for p, Initial residual = 0.162046, Final residual = 0.00770135, No Iterations 13
GAMG:  Solving for p, Initial residual = 0.0975859, Final residual = 0.00427495, No Iterations 6
GAMG:  Solving for p, Initial residual = 0.0325859, Final residual = 0.00149831, No Iterations 16
time step continuity errors : sum local = 4.26674e-06, global = -6.14621e-07, cumulative = 8.30952e-05
smoothSolver:  Solving for epsilon, Initial residual = 0.020994, Final residual = 0.000261435, No Iterations 1
smoothSolver:  Solving for k, Initial residual = 0.00633733, Final residual = 0.000624089, No Iterations 1
ExecutionTime = 42.6247 s  ClockTime = 43 s

Time = 33s

smoothSolver:  Solving for Ux, Initial residual = 0.0047968, Final residual = 0.000237577, No Iterations 2
smoothSolver:  Solving for Uy, Initial residual = 0.0386996, Final residual = 0.00219096, No Iterations 2
smoothSolver:  Solving for Uz, Initial residual = 0.0661923, Final residual = 0.00284314, No Iterations 2
GAMG:  Solving for p, Initial residual = 0.152291, Final residual = 0.00698412, No Iterations 13
GAMG:  Solving for p, Initial residual = 0.0745449, Final residual = 0.0034908, No Iterations 12
GAMG:  Solving for p, Initial residual = 0.0296029, Final residual = 0.00140975, No Iterations 20
time step continuity errors : sum local = 3.81796e-06, global = -6.07815e-07, cumulative = 8.24874e-05
smoothSolver:  Solving for epsilon, Initial residual = 0.0213121, Final residual = 0.000266777, No Iterations 1
smoothSolver:  Solving for k, Initial residual = 0.00616123, Final residual = 0.000613494, No Iterations 1
ExecutionTime = 43.7623 s  ClockTime = 44 s

Time = 34s

smoothSolver:  Solving for Ux, Initial residual = 0.0043851, Final residual = 0.000227438, No Iterations 2
smoothSolver:  Solving for Uy, Initial residual = 0.041193, Final residual = 0.00225902, No Iterations 2
smoothSolver:  Solving for Uz, Initial residual = 0.067686, Final residual = 0.00295441, No Iterations 2
GAMG:  Solving for p, Initial residual = 0.139869, Final residual = 0.00614057, No Iterations 14
GAMG:  Solving for p, Initial residual = 0.0938474, Final residual = 0.00400763, No Iterations 6
GAMG:  Solving for p, Initial residual = 0.0318019, Final residual = 0.00150129, No Iterations 21
time step continuity errors : sum local = 4.05274e-06, global = -6.97888e-07, cumulative = 8.17895e-05
smoothSolver:  Solving for epsilon, Initial residual = 0.0216266, Final residual = 0.000270898, No Iterations 1
smoothSolver:  Solving for k, Initial residual = 0.00598126, Final residual = 9.2463e-05, No Iterations 2
ExecutionTime = 44.8251 s  ClockTime = 45 s

Time = 35s

smoothSolver:  Solving for Ux, Initial residual = 0.00387524, Final residual = 0.000213639, No Iterations 2
smoothSolver:  Solving for Uy, Initial residual = 0.0412996, Final residual = 0.00233266, No Iterations 2
smoothSolver:  Solving for Uz, Initial residual = 0.0682929, Final residual = 0.00292004, No Iterations 2
GAMG:  Solving for p, Initial residual = 0.13422, Final residual = 0.00617921, No Iterations 12
GAMG:  Solving for p, Initial residual = 0.0900425, Final residual = 0.00365404, No Iterations 6
GAMG:  Solving for p, Initial residual = 0.0303427, Final residual = 0.00148126, No Iterations 14
time step continuity errors : sum local = 4.02666e-06, global = 5.56616e-07, cumulative = 8.23461e-05
smoothSolver:  Solving for epsilon, Initial residual = 0.0219283, Final residual = 0.000275495, No Iterations 1
smoothSolver:  Solving for k, Initial residual = 0.00574307, Final residual = 8.99503e-05, No Iterations 2
ExecutionTime = 45.733 s  ClockTime = 46 s

Time = 36s

smoothSolver:  Solving for Ux, Initial residual = 0.00375015, Final residual = 0.000204492, No Iterations 2
smoothSolver:  Solving for Uy, Initial residual = 0.0393829, Final residual = 0.00235526, No Iterations 2
smoothSolver:  Solving for Uz, Initial residual = 0.064705, Final residual = 0.00271367, No Iterations 2
GAMG:  Solving for p, Initial residual = 0.12816, Final residual = 0.00606294, No Iterations 10
GAMG:  Solving for p, Initial residual = 0.0634543, Final residual = 0.00281028, No Iterations 8
GAMG:  Solving for p, Initial residual = 0.0233405, Final residual = 0.001092, No Iterations 16
time step continuity errors : sum local = 2.83986e-06, global = 4.49441e-07, cumulative = 8.27956e-05
smoothSolver:  Solving for epsilon, Initial residual = 0.0221397, Final residual = 0.000276373, No Iterations 1
smoothSolver:  Solving for k, Initial residual = 0.00545659, Final residual = 8.85435e-05, No Iterations 2
ExecutionTime = 46.6842 s  ClockTime = 47 s

Time = 37s

smoothSolver:  Solving for Ux, Initial residual = 0.00365896, Final residual = 0.000199136, No Iterations 2
smoothSolver:  Solving for Uy, Initial residual = 0.0358895, Final residual = 0.00229601, No Iterations 2
smoothSolver:  Solving for Uz, Initial residual = 0.0606642, Final residual = 0.00256359, No Iterations 2
GAMG:  Solving for p, Initial residual = 0.119894, Final residual = 0.00498242, No Iterations 11
GAMG:  Solving for p, Initial residual = 0.0585202, Final residual = 0.00271511, No Iterations 10
GAMG:  Solving for p, Initial residual = 0.0244225, Final residual = 0.00120444, No Iterations 21
time step continuity errors : sum local = 2.85478e-06, global = 4.48487e-07, cumulative = 8.3244e-05
smoothSolver:  Solving for epsilon, Initial residual = 0.0222526, Final residual = 0.000275391, No Iterations 1
smoothSolver:  Solving for k, Initial residual = 0.00514675, Final residual = 8.6631e-05, No Iterations 2
ExecutionTime = 47.7724 s  ClockTime = 48 s

Time = 38s

smoothSolver:  Solving for Ux, Initial residual = 0.00343815, Final residual = 0.00019194, No Iterations 2
smoothSolver:  Solving for Uy, Initial residual = 0.0339437, Final residual = 0.00221594, No Iterations 2
smoothSolver:  Solving for Uz, Initial residual = 0.0593685, Final residual = 0.00257039, No Iterations 2
GAMG:  Solving for p, Initial residual = 0.117825, Final residual = 0.00521449, No Iterations 11
GAMG:  Solving for p, Initial residual = 0.0678738, Final residual = 0.00301559, No Iterations 8
GAMG:  Solving for p, Initial residual = 0.026734, Final residual = 0.00127865, No Iterations 19
time step continuity errors : sum local = 2.87519e-06, global = 5.5649e-07, cumulative = 8.38005e-05
smoothSolver:  Solving for epsilon, Initial residual = 0.0223719, Final residual = 0.000275887, No Iterations 1
smoothSolver:  Solving for k, Initial residual = 0.00496763, Final residual = 8.56765e-05, No Iterations 2
ExecutionTime = 48.8058 s  ClockTime = 49 s

Time = 39s

smoothSolver:  Solving for Ux, Initial residual = 0.00324517, Final residual = 0.000186233, No Iterations 2
smoothSolver:  Solving for Uy, Initial residual = 0.0361179, Final residual = 0.00222124, No Iterations 2
smoothSolver:  Solving for Uz, Initial residual = 0.0588973, Final residual = 0.00259154, No Iterations 2
GAMG:  Solving for p, Initial residual = 0.120776, Final residual = 0.00550508, No Iterations 9
GAMG:  Solving for p, Initial residual = 0.0597486, Final residual = 0.0027694, No Iterations 8
GAMG:  Solving for p, Initial residual = 0.0232852, Final residual = 0.00107044, No Iterations 16
time step continuity errors : sum local = 2.34816e-06, global = -3.40958e-07, cumulative = 8.34596e-05
smoothSolver:  Solving for epsilon, Initial residual = 0.0225327, Final residual = 0.000278465, No Iterations 1
smoothSolver:  Solving for k, Initial residual = 0.00482267, Final residual = 8.41473e-05, No Iterations 2
ExecutionTime = 49.7464 s  ClockTime = 50 s

Time = 40s

smoothSolver:  Solving for Ux, Initial residual = 0.00312945, Final residual = 0.000180385, No Iterations 2
smoothSolver:  Solving for Uy, Initial residual = 0.0384626, Final residual = 0.00227527, No Iterations 2
smoothSolver:  Solving for Uz, Initial residual = 0.0574416, Final residual = 0.00254703, No Iterations 2
GAMG:  Solving for p, Initial residual = 0.118567, Final residual = 0.00542858, No Iterations 8
GAMG:  Solving for p, Initial residual = 0.0471868, Final residual = 0.0021016, No Iterations 10
GAMG:  Solving for p, Initial residual = 0.0191201, Final residual = 0.00090825, No Iterations 13
time step continuity errors : sum local = 1.99633e-06, global = -3.42949e-07, cumulative = 8.31166e-05
smoothSolver:  Solving for epsilon, Initial residual = 0.0227188, Final residual = 0.000280867, No Iterations 1
smoothSolver:  Solving for k, Initial residual = 0.00464089, Final residual = 8.25212e-05, No Iterations 2
ExecutionTime = 50.6521 s  ClockTime = 51 s

Time = 41s

smoothSolver:  Solving for Ux, Initial residual = 0.00294371, Final residual = 0.00017157, No Iterations 2
smoothSolver:  Solving for Uy, Initial residual = 0.0383619, Final residual = 0.00230547, No Iterations 2
smoothSolver:  Solving for Uz, Initial residual = 0.0545601, Final residual = 0.00245813, No Iterations 2
GAMG:  Solving for p, Initial residual = 0.110112, Final residual = 0.00541527, No Iterations 8
GAMG:  Solving for p, Initial residual = 0.0533953, Final residual = 0.00230313, No Iterations 8
GAMG:  Solving for p, Initial residual = 0.0203263, Final residual = 0.000999594, No Iterations 15
time step continuity errors : sum local = 2.25604e-06, global = -4.20282e-07, cumulative = 8.26963e-05
smoothSolver:  Solving for epsilon, Initial residual = 0.0229157, Final residual = 0.000283874, No Iterations 1
smoothSolver:  Solving for k, Initial residual = 0.00443689, Final residual = 8.08403e-05, No Iterations 2
ExecutionTime = 51.5598 s  ClockTime = 52 s

Time = 42s

smoothSolver:  Solving for Ux, Initial residual = 0.00278375, Final residual = 0.000163665, No Iterations 2
smoothSolver:  Solving for Uy, Initial residual = 0.0359899, Final residual = 0.00228954, No Iterations 2
smoothSolver:  Solving for Uz, Initial residual = 0.0514394, Final residual = 0.00239683, No Iterations 2
GAMG:  Solving for p, Initial residual = 0.103637, Final residual = 0.00450375, No Iterations 9
GAMG:  Solving for p, Initial residual = 0.0568399, Final residual = 0.00276848, No Iterations 5
GAMG:  Solving for p, Initial residual = 0.0199815, Final residual = 0.000944674, No Iterations 14
time step continuity errors : sum local = 2.15946e-06, global = 3.93896e-07, cumulative = 8.30902e-05
smoothSolver:  Solving for epsilon, Initial residual = 0.0230898, Final residual = 0.000286244, No Iterations 1
smoothSolver:  Solving for k, Initial residual = 0.0042474, Final residual = 7.93907e-05, No Iterations 2
ExecutionTime = 52.4149 s  ClockTime = 53 s

Time = 43s

smoothSolver:  Solving for Ux, Initial residual = 0.00266733, Final residual = 0.000158294, No Iterations 2
smoothSolver:  Solving for Uy, Initial residual = 0.0340111, Final residual = 0.00225404, No Iterations 2
smoothSolver:  Solving for Uz, Initial residual = 0.0485695, Final residual = 0.00231196, No Iterations 2
GAMG:  Solving for p, Initial residual = 0.0996804, Final residual = 0.00401977, No Iterations 9
GAMG:  Solving for p, Initial residual = 0.0486729, Final residual = 0.00237264, No Iterations 5
GAMG:  Solving for p, Initial residual = 0.0169401, Final residual = 0.000786396, No Iterations 12
time step continuity errors : sum local = 1.7668e-06, global = 2.53353e-07, cumulative = 8.33436e-05
smoothSolver:  Solving for epsilon, Initial residual = 0.0232233, Final residual = 0.000287802, No Iterations 1
smoothSolver:  Solving for k, Initial residual = 0.00408139, Final residual = 7.7525e-05, No Iterations 2
ExecutionTime = 53.2241 s  ClockTime = 53 s

Time = 44s

smoothSolver:  Solving for Ux, Initial residual = 0.00254395, Final residual = 0.000154252, No Iterations 2
smoothSolver:  Solving for Uy, Initial residual = 0.0344213, Final residual = 0.0022375, No Iterations 2
smoothSolver:  Solving for Uz, Initial residual = 0.0475125, Final residual = 0.00222488, No Iterations 2
GAMG:  Solving for p, Initial residual = 0.0936765, Final residual = 0.0042568, No Iterations 8
GAMG:  Solving for p, Initial residual = 0.0412286, Final residual = 0.00174293, No Iterations 8
GAMG:  Solving for p, Initial residual = 0.0157455, Final residual = 0.000716882, No Iterations 16
time step continuity errors : sum local = 1.53071e-06, global = 2.46261e-07, cumulative = 8.35899e-05
smoothSolver:  Solving for epsilon, Initial residual = 0.0233092, Final residual = 0.000289233, No Iterations 1
smoothSolver:  Solving for k, Initial residual = 0.00391429, Final residual = 7.53747e-05, No Iterations 2
ExecutionTime = 54.1433 s  ClockTime = 54 s

Time = 45s

smoothSolver:  Solving for Ux, Initial residual = 0.00239752, Final residual = 0.000149302, No Iterations 2
smoothSolver:  Solving for Uy, Initial residual = 0.0352568, Final residual = 0.00223437, No Iterations 2
smoothSolver:  Solving for Uz, Initial residual = 0.0479136, Final residual = 0.00220767, No Iterations 2
GAMG:  Solving for p, Initial residual = 0.0882657, Final residual = 0.00421734, No Iterations 7
GAMG:  Solving for p, Initial residual = 0.0435248, Final residual = 0.00216578, No Iterations 6
GAMG:  Solving for p, Initial residual = 0.0165487, Final residual = 0.000810366, No Iterations 22
time step continuity errors : sum local = 1.6312e-06, global = 2.65682e-07, cumulative = 8.38555e-05
smoothSolver:  Solving for epsilon, Initial residual = 0.0234025, Final residual = 0.000290525, No Iterations 1
smoothSolver:  Solving for k, Initial residual = 0.0037877, Final residual = 7.33807e-05, No Iterations 2
ExecutionTime = 55.1129 s  ClockTime = 55 s

Time = 46s

smoothSolver:  Solving for Ux, Initial residual = 0.00227224, Final residual = 0.000144159, No Iterations 2
smoothSolver:  Solving for Uy, Initial residual = 0.0349586, Final residual = 0.002219, No Iterations 2
smoothSolver:  Solving for Uz, Initial residual = 0.0469896, Final residual = 0.00218871, No Iterations 2
GAMG:  Solving for p, Initial residual = 0.0877965, Final residual = 0.00348261, No Iterations 9
GAMG:  Solving for p, Initial residual = 0.0455732, Final residual = 0.00180425, No Iterations 6
GAMG:  Solving for p, Initial residual = 0.0165941, Final residual = 0.000804691, No Iterations 16
time step continuity errors : sum local = 1.54429e-06, global = 2.65204e-07, cumulative = 8.41207e-05
smoothSolver:  Solving for epsilon, Initial residual = 0.0234906, Final residual = 0.000291878, No Iterations 1
smoothSolver:  Solving for k, Initial residual = 0.00364249, Final residual = 7.14261e-05, No Iterations 2
ExecutionTime = 56.0048 s  ClockTime = 56 s

Time = 47s

smoothSolver:  Solving for Ux, Initial residual = 0.00220012, Final residual = 0.000139734, No Iterations 2
smoothSolver:  Solving for Uy, Initial residual = 0.0334439, Final residual = 0.00218846, No Iterations 2
smoothSolver:  Solving for Uz, Initial residual = 0.0448041, Final residual = 0.00213678, No Iterations 2
GAMG:  Solving for p, Initial residual = 0.087466, Final residual = 0.00349528, No Iterations 9
GAMG:  Solving for p, Initial residual = 0.0388914, Final residual = 0.00177477, No Iterations 6
GAMG:  Solving for p, Initial residual = 0.014145, Final residual = 0.000691935, No Iterations 12
time step continuity errors : sum local = 1.31614e-06, global = 1.9374e-07, cumulative = 8.43145e-05
smoothSolver:  Solving for epsilon, Initial residual = 0.0235882, Final residual = 0.000293655, No Iterations 1
smoothSolver:  Solving for k, Initial residual = 0.00351924, Final residual = 6.9652e-05, No Iterations 2
ExecutionTime = 56.8281 s  ClockTime = 57 s

Time = 48s

smoothSolver:  Solving for Ux, Initial residual = 0.00211386, Final residual = 0.000134972, No Iterations 2
smoothSolver:  Solving for Uy, Initial residual = 0.0316856, Final residual = 0.00214808, No Iterations 2
smoothSolver:  Solving for Uz, Initial residual = 0.0424315, Final residual = 0.00208502, No Iterations 2
GAMG:  Solving for p, Initial residual = 0.0829294, Final residual = 0.00405168, No Iterations 7
GAMG:  Solving for p, Initial residual = 0.0348146, Final residual = 0.00159953, No Iterations 8
GAMG:  Solving for p, Initial residual = 0.0143848, Final residual = 0.000668848, No Iterations 10
time step continuity errors : sum local = 1.28493e-06, global = 1.79336e-07, cumulative = 8.44938e-05
smoothSolver:  Solving for epsilon, Initial residual = 0.0237255, Final residual = 0.000296401, No Iterations 1
smoothSolver:  Solving for k, Initial residual = 0.00341117, Final residual = 6.8097e-05, No Iterations 2
ExecutionTime = 57.6176 s  ClockTime = 58 s

Time = 49s

smoothSolver:  Solving for Ux, Initial residual = 0.00200357, Final residual = 0.000130101, No Iterations 2
smoothSolver:  Solving for Uy, Initial residual = 0.030388, Final residual = 0.00210877, No Iterations 2
smoothSolver:  Solving for Uz, Initial residual = 0.0403326, Final residual = 0.00205947, No Iterations 2
GAMG:  Solving for p, Initial residual = 0.0761941, Final residual = 0.00372943, No Iterations 8
GAMG:  Solving for p, Initial residual = 0.0388095, Final residual = 0.00184383, No Iterations 5
GAMG:  Solving for p, Initial residual = 0.0140715, Final residual = 0.000695105, No Iterations 10
time step continuity errors : sum local = 1.34461e-06, global = -2.21958e-07, cumulative = 8.42719e-05
smoothSolver:  Solving for epsilon, Initial residual = 0.0238686, Final residual = 0.000298393, No Iterations 1
smoothSolver:  Solving for k, Initial residual = 0.00329361, Final residual = 6.63743e-05, No Iterations 2
ExecutionTime = 58.3805 s  ClockTime = 59 s

Time = 50s

smoothSolver:  Solving for Ux, Initial residual = 0.00187305, Final residual = 0.000125513, No Iterations 2
smoothSolver:  Solving for Uy, Initial residual = 0.0296883, Final residual = 0.00208326, No Iterations 2
smoothSolver:  Solving for Uz, Initial residual = 0.0383763, Final residual = 0.00202081, No Iterations 2
GAMG:  Solving for p, Initial residual = 0.0714654, Final residual = 0.00301329, No Iterations 9
GAMG:  Solving for p, Initial residual = 0.0388046, Final residual = 0.00186408, No Iterations 4
GAMG:  Solving for p, Initial residual = 0.0134811, Final residual = 0.000629781, No Iterations 10
time step continuity errors : sum local = 1.20253e-06, global = -1.55529e-07, cumulative = 8.41163e-05
smoothSolver:  Solving for epsilon, Initial residual = 0.0239714, Final residual = 0.000300379, No Iterations 1
smoothSolver:  Solving for k, Initial residual = 0.00318436, Final residual = 6.4751e-05, No Iterations 2
ExecutionTime = 59.1528 s  ClockTime = 59 s

Time = 51s

smoothSolver:  Solving for Ux, Initial residual = 0.0017599, Final residual = 0.000121628, No Iterations 2
smoothSolver:  Solving for Uy, Initial residual = 0.0290278, Final residual = 0.00206735, No Iterations 2
smoothSolver:  Solving for Uz, Initial residual = 0.0362662, Final residual = 0.00196039, No Iterations 2
GAMG:  Solving for p, Initial residual = 0.0682093, Final residual = 0.00304266, No Iterations 8
GAMG:  Solving for p, Initial residual = 0.0361503, Final residual = 0.00145706, No Iterations 5
GAMG:  Solving for p, Initial residual = 0.0126231, Final residual = 0.000627416, No Iterations 6
time step continuity errors : sum local = 1.17269e-06, global = -1.66359e-07, cumulative = 8.395e-05
smoothSolver:  Solving for epsilon, Initial residual = 0.024075, Final residual = 0.00030218, No Iterations 1
smoothSolver:  Solving for k, Initial residual = 0.00305771, Final residual = 6.34018e-05, No Iterations 2
ExecutionTime = 59.8454 s  ClockTime = 60 s

Time = 52s

smoothSolver:  Solving for Ux, Initial residual = 0.00167246, Final residual = 0.000118178, No Iterations 2
smoothSolver:  Solving for Uy, Initial residual = 0.0280129, Final residual = 0.00204952, No Iterations 2
smoothSolver:  Solving for Uz, Initial residual = 0.034742, Final residual = 0.00189654, No Iterations 2
GAMG:  Solving for p, Initial residual = 0.064, Final residual = 0.00311692, No Iterations 7
GAMG:  Solving for p, Initial residual = 0.0359061, Final residual = 0.00166938, No Iterations 4
GAMG:  Solving for p, Initial residual = 0.012308, Final residual = 0.000574555, No Iterations 8
time step continuity errors : sum local = 1.0416e-06, global = -1.59869e-07, cumulative = 8.37901e-05
smoothSolver:  Solving for epsilon, Initial residual = 0.0241434, Final residual = 0.00030337, No Iterations 1
smoothSolver:  Solving for k, Initial residual = 0.00294016, Final residual = 6.17259e-05, No Iterations 2
ExecutionTime = 60.5383 s  ClockTime = 61 s

Time = 53s

smoothSolver:  Solving for Ux, Initial residual = 0.00161004, Final residual = 0.000115144, No Iterations 2
smoothSolver:  Solving for Uy, Initial residual = 0.0268611, Final residual = 0.00202844, No Iterations 2
smoothSolver:  Solving for Uz, Initial residual = 0.0335883, Final residual = 0.00184093, No Iterations 2
GAMG:  Solving for p, Initial residual = 0.0592799, Final residual = 0.00223055, No Iterations 9
GAMG:  Solving for p, Initial residual = 0.0370896, Final residual = 0.00180348, No Iterations 3
GAMG:  Solving for p, Initial residual = 0.0124334, Final residual = 0.000588217, No Iterations 11
time step continuity errors : sum local = 1.03787e-06, global = 1.55115e-07, cumulative = 8.39452e-05
smoothSolver:  Solving for epsilon, Initial residual = 0.0242281, Final residual = 0.000304641, No Iterations 1
smoothSolver:  Solving for k, Initial residual = 0.00285035, Final residual = 6.04549e-05, No Iterations 2
ExecutionTime = 61.3094 s  ClockTime = 62 s

Time = 54s

smoothSolver:  Solving for Ux, Initial residual = 0.00155374, Final residual = 0.000111824, No Iterations 2
smoothSolver:  Solving for Uy, Initial residual = 0.0261943, Final residual = 0.00202078, No Iterations 2
smoothSolver:  Solving for Uz, Initial residual = 0.0325252, Final residual = 0.00179616, No Iterations 2
GAMG:  Solving for p, Initial residual = 0.0566702, Final residual = 0.00245016, No Iterations 9
GAMG:  Solving for p, Initial residual = 0.0352322, Final residual = 0.00157009, No Iterations 4
GAMG:  Solving for p, Initial residual = 0.0120576, Final residual = 0.000599172, No Iterations 14
time step continuity errors : sum local = 1.03659e-06, global = 1.44666e-07, cumulative = 8.40899e-05
smoothSolver:  Solving for epsilon, Initial residual = 0.0243097, Final residual = 0.000305267, No Iterations 1
smoothSolver:  Solving for k, Initial residual = 0.00276399, Final residual = 5.88617e-05, No Iterations 2
ExecutionTime = 62.15 s  ClockTime = 62 s

Time = 55s

smoothSolver:  Solving for Ux, Initial residual = 0.00148509, Final residual = 0.000108106, No Iterations 2
smoothSolver:  Solving for Uy, Initial residual = 0.0262023, Final residual = 0.00203271, No Iterations 2
smoothSolver:  Solving for Uz, Initial residual = 0.0310948, Final residual = 0.00177125, No Iterations 2
GAMG:  Solving for p, Initial residual = 0.055426, Final residual = 0.00269347, No Iterations 8
GAMG:  Solving for p, Initial residual = 0.0317003, Final residual = 0.00145042, No Iterations 5
GAMG:  Solving for p, Initial residual = 0.0116947, Final residual = 0.000526419, No Iterations 12
time step continuity errors : sum local = 9.0069e-07, global = 1.15333e-07, cumulative = 8.42052e-05
smoothSolver:  Solving for epsilon, Initial residual = 0.0243957, Final residual = 0.000306962, No Iterations 1
smoothSolver:  Solving for k, Initial residual = 0.00267453, Final residual = 5.75079e-05, No Iterations 2
ExecutionTime = 62.9514 s  ClockTime = 63 s

Time = 56s

smoothSolver:  Solving for Ux, Initial residual = 0.00140502, Final residual = 0.000104473, No Iterations 2
smoothSolver:  Solving for Uy, Initial residual = 0.0263892, Final residual = 0.0020511, No Iterations 2
smoothSolver:  Solving for Uz, Initial residual = 0.0301869, Final residual = 0.00175409, No Iterations 2
GAMG:  Solving for p, Initial residual = 0.0524827, Final residual = 0.00255978, No Iterations 7
GAMG:  Solving for p, Initial residual = 0.0297033, Final residual = 0.00133365, No Iterations 5
GAMG:  Solving for p, Initial residual = 0.0112767, Final residual = 0.000505902, No Iterations 8
time step continuity errors : sum local = 8.66124e-07, global = 1.38314e-07, cumulative = 8.43435e-05
smoothSolver:  Solving for epsilon, Initial residual = 0.0244816, Final residual = 0.00030814, No Iterations 1
smoothSolver:  Solving for k, Initial residual = 0.00258465, Final residual = 5.60902e-05, No Iterations 2
ExecutionTime = 63.6636 s  ClockTime = 64 s

Time = 57s

smoothSolver:  Solving for Ux, Initial residual = 0.00133075, Final residual = 0.000101438, No Iterations 2
smoothSolver:  Solving for Uy, Initial residual = 0.0261279, Final residual = 0.00205822, No Iterations 2
smoothSolver:  Solving for Uz, Initial residual = 0.0290747, Final residual = 0.00172395, No Iterations 2
GAMG:  Solving for p, Initial residual = 0.0476439, Final residual = 0.00199073, No Iterations 9
GAMG:  Solving for p, Initial residual = 0.0307435, Final residual = 0.00149574, No Iterations 3
GAMG:  Solving for p, Initial residual = 0.0105927, Final residual = 0.000478703, No Iterations 7
time step continuity errors : sum local = 8.16882e-07, global = -8.75626e-08, cumulative = 8.4256e-05
smoothSolver:  Solving for epsilon, Initial residual = 0.0245701, Final residual = 0.000309505, No Iterations 1
smoothSolver:  Solving for k, Initial residual = 0.00249209, Final residual = 5.47488e-05, No Iterations 2
ExecutionTime = 64.3624 s  ClockTime = 65 s

Time = 58s

smoothSolver:  Solving for Ux, Initial residual = 0.00127623, Final residual = 9.90246e-05, No Iterations 2
smoothSolver:  Solving for Uy, Initial residual = 0.0254003, Final residual = 0.00204936, No Iterations 2
smoothSolver:  Solving for Uz, Initial residual = 0.0274434, Final residual = 0.0016771, No Iterations 2
GAMG:  Solving for p, Initial residual = 0.0436519, Final residual = 0.00188831, No Iterations 9
GAMG:  Solving for p, Initial residual = 0.0304934, Final residual = 0.00147359, No Iterations 3
GAMG:  Solving for p, Initial residual = 0.0103075, Final residual = 0.000498586, No Iterations 7
time step continuity errors : sum local = 8.40257e-07, global = -7.70134e-08, cumulative = 8.4179e-05
smoothSolver:  Solving for epsilon, Initial residual = 0.0246284, Final residual = 0.000311143, No Iterations 1
smoothSolver:  Solving for k, Initial residual = 0.00240502, Final residual = 5.33217e-05, No Iterations 2
ExecutionTime = 65.0463 s  ClockTime = 65 s

Time = 59s

smoothSolver:  Solving for Ux, Initial residual = 0.00123546, Final residual = 9.68924e-05, No Iterations 2
smoothSolver:  Solving for Uy, Initial residual = 0.0245577, Final residual = 0.0020347, No Iterations 2
smoothSolver:  Solving for Uz, Initial residual = 0.0254875, Final residual = 0.00162407, No Iterations 2
GAMG:  Solving for p, Initial residual = 0.0410535, Final residual = 0.00198678, No Iterations 8
GAMG:  Solving for p, Initial residual = 0.0301806, Final residual = 0.00144306, No Iterations 3
GAMG:  Solving for p, Initial residual = 0.0102153, Final residual = 0.000432268, No Iterations 8
time step continuity errors : sum local = 7.18623e-07, global = -6.79491e-08, cumulative = 8.4111e-05
smoothSolver:  Solving for epsilon, Initial residual = 0.0246944, Final residual = 0.000312307, No Iterations 1
smoothSolver:  Solving for k, Initial residual = 0.00232813, Final residual = 5.19377e-05, No Iterations 2
ExecutionTime = 65.7311 s  ClockTime = 66 s

Time = 60s

smoothSolver:  Solving for Ux, Initial residual = 0.00119663, Final residual = 9.46387e-05, No Iterations 2
smoothSolver:  Solving for Uy, Initial residual = 0.0239882, Final residual = 0.00202341, No Iterations 2
smoothSolver:  Solving for Uz, Initial residual = 0.0239282, Final residual = 0.0015758, No Iterations 2
GAMG:  Solving for p, Initial residual = 0.038559, Final residual = 0.00154842, No Iterations 9
GAMG:  Solving for p, Initial residual = 0.0309161, Final residual = 0.00126185, No Iterations 3
GAMG:  Solving for p, Initial residual = 0.0101369, Final residual = 0.000447402, No Iterations 6
time step continuity errors : sum local = 7.35524e-07, global = -1.07076e-07, cumulative = 8.40039e-05
smoothSolver:  Solving for epsilon, Initial residual = 0.0247507, Final residual = 0.000313856, No Iterations 1
smoothSolver:  Solving for k, Initial residual = 0.00225924, Final residual = 5.0533e-05, No Iterations 2
ExecutionTime = 66.4039 s  ClockTime = 67 s

Time = 61s

smoothSolver:  Solving for Ux, Initial residual = 0.00115718, Final residual = 9.22133e-05, No Iterations 2
smoothSolver:  Solving for Uy, Initial residual = 0.0238883, Final residual = 0.00202317, No Iterations 2
smoothSolver:  Solving for Uz, Initial residual = 0.0232343, Final residual = 0.00153767, No Iterations 2
GAMG:  Solving for p, Initial residual = 0.0355544, Final residual = 0.00167394, No Iterations 9
GAMG:  Solving for p, Initial residual = 0.0303979, Final residual = 0.00137297, No Iterations 3
GAMG:  Solving for p, Initial residual = 0.0101325, Final residual = 0.000493148, No Iterations 8
time step continuity errors : sum local = 8.03335e-07, global = -1.52804e-07, cumulative = 8.38511e-05
smoothSolver:  Solving for epsilon, Initial residual = 0.0247941, Final residual = 0.000314582, No Iterations 1
smoothSolver:  Solving for k, Initial residual = 0.00219405, Final residual = 4.92403e-05, No Iterations 2
ExecutionTime = 67.1135 s  ClockTime = 67 s

Time = 62s

smoothSolver:  Solving for Ux, Initial residual = 0.00112063, Final residual = 8.9745e-05, No Iterations 2
smoothSolver:  Solving for Uy, Initial residual = 0.0239234, Final residual = 0.00203249, No Iterations 2
smoothSolver:  Solving for Uz, Initial residual = 0.0228534, Final residual = 0.00151146, No Iterations 2
GAMG:  Solving for p, Initial residual = 0.0331186, Final residual = 0.00133078, No Iterations 11
GAMG:  Solving for p, Initial residual = 0.0307445, Final residual = 0.00128575, No Iterations 3
GAMG:  Solving for p, Initial residual = 0.0102262, Final residual = 0.000455652, No Iterations 9
time step continuity errors : sum local = 7.36237e-07, global = 1.01355e-07, cumulative = 8.39525e-05
smoothSolver:  Solving for epsilon, Initial residual = 0.0248423, Final residual = 0.000315625, No Iterations 1
smoothSolver:  Solving for k, Initial residual = 0.00213231, Final residual = 4.79141e-05, No Iterations 2
ExecutionTime = 67.8699 s  ClockTime = 68 s

Time = 63s

smoothSolver:  Solving for Ux, Initial residual = 0.00109147, Final residual = 8.74344e-05, No Iterations 2
smoothSolver:  Solving for Uy, Initial residual = 0.0237769, Final residual = 0.00203937, No Iterations 2
smoothSolver:  Solving for Uz, Initial residual = 0.0220824, Final residual = 0.00148338, No Iterations 2
GAMG:  Solving for p, Initial residual = 0.0312442, Final residual = 0.00147687, No Iterations 10
GAMG:  Solving for p, Initial residual = 0.029332, Final residual = 0.00134909, No Iterations 3
GAMG:  Solving for p, Initial residual = 0.00995754, Final residual = 0.000463449, No Iterations 10
time step continuity errors : sum local = 7.43839e-07, global = 9.09473e-08, cumulative = 8.40434e-05
smoothSolver:  Solving for epsilon, Initial residual = 0.0248885, Final residual = 0.000316769, No Iterations 1
smoothSolver:  Solving for k, Initial residual = 0.00207229, Final residual = 4.64951e-05, No Iterations 2
ExecutionTime = 68.6328 s  ClockTime = 69 s

Time = 64s

smoothSolver:  Solving for Ux, Initial residual = 0.00106611, Final residual = 8.55075e-05, No Iterations 2
smoothSolver:  Solving for Uy, Initial residual = 0.0233423, Final residual = 0.00203903, No Iterations 2
smoothSolver:  Solving for Uz, Initial residual = 0.0209796, Final residual = 0.00144515, No Iterations 2
GAMG:  Solving for p, Initial residual = 0.0293747, Final residual = 0.00142456, No Iterations 9
GAMG:  Solving for p, Initial residual = 0.0273304, Final residual = 0.00124059, No Iterations 3
GAMG:  Solving for p, Initial residual = 0.00929615, Final residual = 0.000441985, No Iterations 8
time step continuity errors : sum local = 7.06221e-07, global = 1.07772e-07, cumulative = 8.41512e-05
smoothSolver:  Solving for epsilon, Initial residual = 0.0249244, Final residual = 0.000317842, No Iterations 1
smoothSolver:  Solving for k, Initial residual = 0.00201518, Final residual = 4.51865e-05, No Iterations 2
ExecutionTime = 69.3366 s  ClockTime = 70 s

Time = 65s

smoothSolver:  Solving for Ux, Initial residual = 0.00104178, Final residual = 8.3818e-05, No Iterations 2
smoothSolver:  Solving for Uy, Initial residual = 0.022746, Final residual = 0.00203137, No Iterations 2
smoothSolver:  Solving for Uz, Initial residual = 0.020024, Final residual = 0.00140019, No Iterations 2
GAMG:  Solving for p, Initial residual = 0.0272627, Final residual = 0.0013225, No Iterations 10
GAMG:  Solving for p, Initial residual = 0.0261288, Final residual = 0.00107413, No Iterations 3
GAMG:  Solving for p, Initial residual = 0.0086348, Final residual = 0.000427791, No Iterations 7
time step continuity errors : sum local = 6.80521e-07, global = 1.16101e-07, cumulative = 8.42673e-05
smoothSolver:  Solving for epsilon, Initial residual = 0.0249782, Final residual = 0.000318984, No Iterations 1
smoothSolver:  Solving for k, Initial residual = 0.00195867, Final residual = 4.38623e-05, No Iterations 2
ExecutionTime = 70.0399 s  ClockTime = 70 s

Time = 66s

smoothSolver:  Solving for Ux, Initial residual = 0.00101665, Final residual = 8.21495e-05, No Iterations 2
smoothSolver:  Solving for Uy, Initial residual = 0.0223025, Final residual = 0.00202276, No Iterations 2
smoothSolver:  Solving for Uz, Initial residual = 0.0190801, Final residual = 0.00135829, No Iterations 2
GAMG:  Solving for p, Initial residual = 0.0250017, Final residual = 0.00121539, No Iterations 10
GAMG:  Solving for p, Initial residual = 0.0252725, Final residual = 0.00101288, No Iterations 3
GAMG:  Solving for p, Initial residual = 0.00834985, Final residual = 0.000370465, No Iterations 6
time step continuity errors : sum local = 5.85027e-07, global = -8.07542e-08, cumulative = 8.41865e-05
smoothSolver:  Solving for epsilon, Initial residual = 0.0250071, Final residual = 0.000319892, No Iterations 1
smoothSolver:  Solving for k, Initial residual = 0.00189893, Final residual = 4.24433e-05, No Iterations 2
ExecutionTime = 70.7334 s  ClockTime = 71 s

Time = 67s

smoothSolver:  Solving for Ux, Initial residual = 0.00099198, Final residual = 8.04132e-05, No Iterations 2
smoothSolver:  Solving for Uy, Initial residual = 0.0221883, Final residual = 0.00202007, No Iterations 2
smoothSolver:  Solving for Uz, Initial residual = 0.018209, Final residual = 0.00132345, No Iterations 2
GAMG:  Solving for p, Initial residual = 0.0231963, Final residual = 0.00114476, No Iterations 10
GAMG:  Solving for p, Initial residual = 0.0252924, Final residual = 0.00100846, No Iterations 3
GAMG:  Solving for p, Initial residual = 0.00833509, Final residual = 0.000366622, No Iterations 6
time step continuity errors : sum local = 5.74966e-07, global = -7.84007e-08, cumulative = 8.41081e-05
smoothSolver:  Solving for epsilon, Initial residual = 0.0250462, Final residual = 0.000321295, No Iterations 1
smoothSolver:  Solving for k, Initial residual = 0.0018405, Final residual = 4.1134e-05, No Iterations 2
ExecutionTime = 71.429 s  ClockTime = 72 s

Time = 68s

smoothSolver:  Solving for Ux, Initial residual = 0.000969676, Final residual = 7.85855e-05, No Iterations 2
smoothSolver:  Solving for Uy, Initial residual = 0.0221954, Final residual = 0.0020207, No Iterations 2
smoothSolver:  Solving for Uz, Initial residual = 0.0174747, Final residual = 0.00129313, No Iterations 2
GAMG:  Solving for p, Initial residual = 0.0218377, Final residual = 0.000972151, No Iterations 11
GAMG:  Solving for p, Initial residual = 0.0259043, Final residual = 0.000964853, No Iterations 3
GAMG:  Solving for p, Initial residual = 0.00840837, Final residual = 0.000395311, No Iterations 5
time step continuity errors : sum local = 6.17173e-07, global = 7.12969e-08, cumulative = 8.41794e-05
smoothSolver:  Solving for epsilon, Initial residual = 0.025081, Final residual = 0.00032237, No Iterations 1
smoothSolver:  Solving for k, Initial residual = 0.00178559, Final residual = 3.97865e-05, No Iterations 2
ExecutionTime = 72.1184 s  ClockTime = 72 s

Time = 69s

smoothSolver:  Solving for Ux, Initial residual = 0.000948821, Final residual = 7.67307e-05, No Iterations 2
smoothSolver:  Solving for Uy, Initial residual = 0.0222216, Final residual = 0.00202323, No Iterations 2
smoothSolver:  Solving for Uz, Initial residual = 0.0168823, Final residual = 0.00126335, No Iterations 2
GAMG:  Solving for p, Initial residual = 0.0205242, Final residual = 0.00102319, No Iterations 11
GAMG:  Solving for p, Initial residual = 0.0256895, Final residual = 0.000998636, No Iterations 3
GAMG:  Solving for p, Initial residual = 0.00840917, Final residual = 0.000400945, No Iterations 6
time step continuity errors : sum local = 6.23762e-07, global = -1.04824e-07, cumulative = 8.40746e-05
smoothSolver:  Solving for epsilon, Initial residual = 0.025127, Final residual = 0.000323485, No Iterations 1
smoothSolver:  Solving for k, Initial residual = 0.00173426, Final residual = 3.86227e-05, No Iterations 2
ExecutionTime = 72.8248 s  ClockTime = 73 s

Time = 70s

smoothSolver:  Solving for Ux, Initial residual = 0.000930011, Final residual = 7.49969e-05, No Iterations 2
smoothSolver:  Solving for Uy, Initial residual = 0.0222286, Final residual = 0.00202428, No Iterations 2
smoothSolver:  Solving for Uz, Initial residual = 0.0164454, Final residual = 0.00123409, No Iterations 2
GAMG:  Solving for p, Initial residual = 0.0194162, Final residual = 0.000938916, No Iterations 12
GAMG:  Solving for p, Initial residual = 0.0257306, Final residual = 0.000956701, No Iterations 3
GAMG:  Solving for p, Initial residual = 0.00844785, Final residual = 0.000362721, No Iterations 6
time step continuity errors : sum local = 5.6137e-07, global = 8.03383e-08, cumulative = 8.4155e-05
smoothSolver:  Solving for epsilon, Initial residual = 0.0251575, Final residual = 0.000324304, No Iterations 1
smoothSolver:  Solving for k, Initial residual = 0.00168561, Final residual = 3.74214e-05, No Iterations 2
ExecutionTime = 73.5588 s  ClockTime = 74 s

Time = 71s

smoothSolver:  Solving for Ux, Initial residual = 0.000913898, Final residual = 7.33572e-05, No Iterations 2
smoothSolver:  Solving for Uy, Initial residual = 0.0222245, Final residual = 0.00202367, No Iterations 2
smoothSolver:  Solving for Uz, Initial residual = 0.0159626, Final residual = 0.00120442, No Iterations 2
GAMG:  Solving for p, Initial residual = 0.0184455, Final residual = 0.000875912, No Iterations 12
GAMG:  Solving for p, Initial residual = 0.0248295, Final residual = 0.000964683, No Iterations 3
GAMG:  Solving for p, Initial residual = 0.00831005, Final residual = 0.000357023, No Iterations 6
time step continuity errors : sum local = 5.4898e-07, global = 7.80061e-08, cumulative = 8.4233e-05
smoothSolver:  Solving for epsilon, Initial residual = 0.025204, Final residual = 0.000325297, No Iterations 1
smoothSolver:  Solving for k, Initial residual = 0.00163966, Final residual = 3.63109e-05, No Iterations 2
ExecutionTime = 74.2862 s  ClockTime = 75 s

Time = 72s

smoothSolver:  Solving for Ux, Initial residual = 0.000898184, Final residual = 7.17795e-05, No Iterations 2
smoothSolver:  Solving for Uy, Initial residual = 0.0222048, Final residual = 0.00202071, No Iterations 2
smoothSolver:  Solving for Uz, Initial residual = 0.0154069, Final residual = 0.00117264, No Iterations 2
GAMG:  Solving for p, Initial residual = 0.0173345, Final residual = 0.000835627, No Iterations 12
GAMG:  Solving for p, Initial residual = 0.0230705, Final residual = 0.000920939, No Iterations 3
GAMG:  Solving for p, Initial residual = 0.00764533, Final residual = 0.000373439, No Iterations 7
time step continuity errors : sum local = 5.71534e-07, global = 7.80572e-08, cumulative = 8.4311e-05
smoothSolver:  Solving for epsilon, Initial residual = 0.025254, Final residual = 0.000326181, No Iterations 1
smoothSolver:  Solving for k, Initial residual = 0.00159425, Final residual = 3.525e-05, No Iterations 2
ExecutionTime = 75.0317 s  ClockTime = 75 s

Time = 73s

smoothSolver:  Solving for Ux, Initial residual = 0.000882455, Final residual = 7.02404e-05, No Iterations 2
smoothSolver:  Solving for Uy, Initial residual = 0.0221873, Final residual = 0.00201284, No Iterations 2
smoothSolver:  Solving for Uz, Initial residual = 0.0149076, Final residual = 0.00114283, No Iterations 2
GAMG:  Solving for p, Initial residual = 0.016441, Final residual = 0.000805658, No Iterations 12
GAMG:  Solving for p, Initial residual = 0.0216067, Final residual = 0.000841645, No Iterations 3
GAMG:  Solving for p, Initial residual = 0.00713373, Final residual = 0.00032508, No Iterations 7
time step continuity errors : sum local = 4.94253e-07, global = 7.62244e-08, cumulative = 8.43872e-05
smoothSolver:  Solving for epsilon, Initial residual = 0.0252948, Final residual = 0.000327097, No Iterations 1
smoothSolver:  Solving for k, Initial residual = 0.00155046, Final residual = 3.42012e-05, No Iterations 2
ExecutionTime = 75.7667 s  ClockTime = 76 s

Time = 74s

smoothSolver:  Solving for Ux, Initial residual = 0.000866501, Final residual = 6.8691e-05, No Iterations 2
smoothSolver:  Solving for Uy, Initial residual = 0.0222077, Final residual = 0.00200329, No Iterations 2
smoothSolver:  Solving for Uz, Initial residual = 0.014437, Final residual = 0.00111789, No Iterations 2
GAMG:  Solving for p, Initial residual = 0.0157823, Final residual = 0.000747589, No Iterations 12
GAMG:  Solving for p, Initial residual = 0.0207682, Final residual = 0.000756996, No Iterations 3
GAMG:  Solving for p, Initial residual = 0.00676214, Final residual = 0.000334619, No Iterations 5
time step continuity errors : sum local = 5.05627e-07, global = 6.19119e-08, cumulative = 8.44492e-05
smoothSolver:  Solving for epsilon, Initial residual = 0.0253453, Final residual = 0.000328032, No Iterations 1
smoothSolver:  Solving for k, Initial residual = 0.00150867, Final residual = 3.31297e-05, No Iterations 2
ExecutionTime = 76.4855 s  ClockTime = 77 s

Time = 75s

smoothSolver:  Solving for Ux, Initial residual = 0.000851161, Final residual = 6.71206e-05, No Iterations 2
smoothSolver:  Solving for Uy, Initial residual = 0.0222568, Final residual = 0.00199272, No Iterations 2
smoothSolver:  Solving for Uz, Initial residual = 0.0140259, Final residual = 0.00109569, No Iterations 2
GAMG:  Solving for p, Initial residual = 0.0150503, Final residual = 0.000665799, No Iterations 12
GAMG:  Solving for p, Initial residual = 0.0206859, Final residual = 0.000724189, No Iterations 3
GAMG:  Solving for p, Initial residual = 0.00664991, Final residual = 0.0002951, No Iterations 5
time step continuity errors : sum local = 4.43362e-07, global = 5.2052e-08, cumulative = 8.45012e-05
smoothSolver:  Solving for epsilon, Initial residual = 0.0253952, Final residual = 0.00032895, No Iterations 1
smoothSolver:  Solving for k, Initial residual = 0.0014683, Final residual = 3.21099e-05, No Iterations 2
ExecutionTime = 77.1951 s  ClockTime = 77 s

Time = 76s

smoothSolver:  Solving for Ux, Initial residual = 0.000837215, Final residual = 6.55239e-05, No Iterations 2
smoothSolver:  Solving for Uy, Initial residual = 0.0223431, Final residual = 0.00198392, No Iterations 2
smoothSolver:  Solving for Uz, Initial residual = 0.013715, Final residual = 0.00107534, No Iterations 2
GAMG:  Solving for p, Initial residual = 0.0143109, Final residual = 0.000638509, No Iterations 12
GAMG:  Solving for p, Initial residual = 0.0206465, Final residual = 0.000726504, No Iterations 3
GAMG:  Solving for p, Initial residual = 0.00660747, Final residual = 0.000309126, No Iterations 5
time step continuity errors : sum local = 4.62052e-07, global = -6.11757e-08, cumulative = 8.444e-05
smoothSolver:  Solving for epsilon, Initial residual = 0.0254511, Final residual = 0.000329539, No Iterations 1
smoothSolver:  Solving for k, Initial residual = 0.00143152, Final residual = 3.12306e-05, No Iterations 2
ExecutionTime = 77.8972 s  ClockTime = 78 s

Time = 77s

smoothSolver:  Solving for Ux, Initial residual = 0.000824038, Final residual = 6.39272e-05, No Iterations 2
smoothSolver:  Solving for Uy, Initial residual = 0.0224427, Final residual = 0.00197572, No Iterations 2
smoothSolver:  Solving for Uz, Initial residual = 0.0134895, Final residual = 0.00105957, No Iterations 2
GAMG:  Solving for p, Initial residual = 0.013721, Final residual = 0.000586525, No Iterations 12
GAMG:  Solving for p, Initial residual = 0.0206357, Final residual = 0.00073744, No Iterations 3
GAMG:  Solving for p, Initial residual = 0.00659, Final residual = 0.000316448, No Iterations 5
time step continuity errors : sum local = 4.69889e-07, global = 4.89984e-08, cumulative = 8.4489e-05
smoothSolver:  Solving for epsilon, Initial residual = 0.025502, Final residual = 0.000330852, No Iterations 1
smoothSolver:  Solving for k, Initial residual = 0.00139679, Final residual = 3.02099e-05, No Iterations 2
ExecutionTime = 78.5998 s  ClockTime = 79 s

Time = 78s

smoothSolver:  Solving for Ux, Initial residual = 0.000813053, Final residual = 6.23688e-05, No Iterations 2
smoothSolver:  Solving for Uy, Initial residual = 0.0225249, Final residual = 0.00196593, No Iterations 2
smoothSolver:  Solving for Uz, Initial residual = 0.0133387, Final residual = 0.00104612, No Iterations 2
GAMG:  Solving for p, Initial residual = 0.0133812, Final residual = 0.000639973, No Iterations 12
GAMG:  Solving for p, Initial residual = 0.0201086, Final residual = 0.000729433, No Iterations 3
GAMG:  Solving for p, Initial residual = 0.00650112, Final residual = 0.000273031, No Iterations 6
time step continuity errors : sum local = 4.0251e-07, global = 5.42913e-08, cumulative = 8.45433e-05
smoothSolver:  Solving for epsilon, Initial residual = 0.0255617, Final residual = 0.000331832, No Iterations 1
smoothSolver:  Solving for k, Initial residual = 0.00136603, Final residual = 2.93212e-05, No Iterations 2
ExecutionTime = 79.3195 s  ClockTime = 80 s

Time = 79s

smoothSolver:  Solving for Ux, Initial residual = 0.000801931, Final residual = 6.08915e-05, No Iterations 2
smoothSolver:  Solving for Uy, Initial residual = 0.0225647, Final residual = 0.00195301, No Iterations 2
smoothSolver:  Solving for Uz, Initial residual = 0.0131656, Final residual = 0.0010326, No Iterations 2
GAMG:  Solving for p, Initial residual = 0.0129903, Final residual = 0.000647194, No Iterations 13
GAMG:  Solving for p, Initial residual = 0.0194202, Final residual = 0.000774937, No Iterations 3
GAMG:  Solving for p, Initial residual = 0.00643531, Final residual = 0.00028294, No Iterations 6
time step continuity errors : sum local = 4.14174e-07, global = 5.67009e-08, cumulative = 8.46e-05
smoothSolver:  Solving for epsilon, Initial residual = 0.025624, Final residual = 0.000332691, No Iterations 1
smoothSolver:  Solving for k, Initial residual = 0.0013391, Final residual = 2.84606e-05, No Iterations 2
ExecutionTime = 80.0732 s  ClockTime = 80 s

Time = 80s

smoothSolver:  Solving for Ux, Initial residual = 0.000791736, Final residual = 5.94805e-05, No Iterations 2
smoothSolver:  Solving for Uy, Initial residual = 0.0225835, Final residual = 0.00193608, No Iterations 2
smoothSolver:  Solving for Uz, Initial residual = 0.0130083, Final residual = 0.00101661, No Iterations 2
GAMG:  Solving for p, Initial residual = 0.0125206, Final residual = 0.000589706, No Iterations 14
GAMG:  Solving for p, Initial residual = 0.0186088, Final residual = 0.00074008, No Iterations 3
[...]
smoothSolver:  Solving for Uz, Initial residual = 2.90146e-06, Final residual = 6.91107e-08, No Iterations 2
GAMG:  Solving for p, Initial residual = 4.13083e-06, Final residual = 6.21008e-07, No Iterations 3
GAMG:  Solving for p, Initial residual = 2.3977e-06, Final residual = 4.95037e-07, No Iterations 1
GAMG:  Solving for p, Initial residual = 9.37389e-07, Final residual = 9.37389e-07, No Iterations 0
time step continuity errors : sum local = 1.22107e-09, global = 6.99876e-12, cumulative = 8.51964e-05
smoothSolver:  Solving for epsilon, Initial residual = 0.0286981, Final residual = 0.000374341, No Iterations 1
smoothSolver:  Solving for k, Initial residual = 3.89136e-07, Final residual = 4.34122e-08, No Iterations 1
ExecutionTime = 526.934 s  ClockTime = 533 s

Time = 982s

smoothSolver:  Solving for Ux, Initial residual = 9.97265e-08, Final residual = 9.97265e-08, No Iterations 0
smoothSolver:  Solving for Uy, Initial residual = 1.65831e-06, Final residual = 4.433e-08, No Iterations 2
smoothSolver:  Solving for Uz, Initial residual = 2.79767e-06, Final residual = 6.57752e-08, No Iterations 2
GAMG:  Solving for p, Initial residual = 4.45736e-06, Final residual = 6.48924e-07, No Iterations 3
GAMG:  Solving for p, Initial residual = 2.39172e-06, Final residual = 5.11475e-07, No Iterations 1
GAMG:  Solving for p, Initial residual = 9.51515e-07, Final residual = 9.51515e-07, No Iterations 0
time step continuity errors : sum local = 1.23948e-09, global = 5.1527e-12, cumulative = 8.51964e-05
smoothSolver:  Solving for epsilon, Initial residual = 0.0286981, Final residual = 0.000374346, No Iterations 1
smoothSolver:  Solving for k, Initial residual = 4.00473e-07, Final residual = 4.61528e-08, No Iterations 1
ExecutionTime = 527.362 s  ClockTime = 533 s

Time = 983s

smoothSolver:  Solving for Ux, Initial residual = 1.0716e-07, Final residual = 9.71442e-09, No Iterations 1
smoothSolver:  Solving for Uy, Initial residual = 1.63532e-06, Final residual = 4.53175e-08, No Iterations 2
smoothSolver:  Solving for Uz, Initial residual = 2.87297e-06, Final residual = 6.75575e-08, No Iterations 2
GAMG:  Solving for p, Initial residual = 3.94723e-06, Final residual = 8.83231e-07, No Iterations 2
GAMG:  Solving for p, Initial residual = 2.23767e-06, Final residual = 5.72346e-07, No Iterations 1
GAMG:  Solving for p, Initial residual = 9.51741e-07, Final residual = 9.51741e-07, No Iterations 0
time step continuity errors : sum local = 1.23977e-09, global = -1.22695e-12, cumulative = 8.51964e-05
smoothSolver:  Solving for epsilon, Initial residual = 0.0286981, Final residual = 0.000374343, No Iterations 1
smoothSolver:  Solving for k, Initial residual = 3.92419e-07, Final residual = 4.37296e-08, No Iterations 1
ExecutionTime = 527.778 s  ClockTime = 534 s

Time = 984s

smoothSolver:  Solving for Ux, Initial residual = 9.49124e-08, Final residual = 9.49124e-08, No Iterations 0
smoothSolver:  Solving for Uy, Initial residual = 1.67472e-06, Final residual = 4.62844e-08, No Iterations 2
smoothSolver:  Solving for Uz, Initial residual = 2.90282e-06, Final residual = 7.04815e-08, No Iterations 2
GAMG:  Solving for p, Initial residual = 4.14663e-06, Final residual = 9.67987e-07, No Iterations 2
GAMG:  Solving for p, Initial residual = 2.23115e-06, Final residual = 6.22643e-07, No Iterations 1
GAMG:  Solving for p, Initial residual = 9.95126e-07, Final residual = 9.95126e-07, No Iterations 0
time step continuity errors : sum local = 1.29629e-09, global = -3.80286e-12, cumulative = 8.51964e-05
smoothSolver:  Solving for epsilon, Initial residual = 0.0286981, Final residual = 0.000374342, No Iterations 1
smoothSolver:  Solving for k, Initial residual = 4.03069e-07, Final residual = 4.63871e-08, No Iterations 1
ExecutionTime = 528.188 s  ClockTime = 534 s

Time = 985s

smoothSolver:  Solving for Ux, Initial residual = 1.01947e-07, Final residual = 9.15283e-09, No Iterations 1
smoothSolver:  Solving for Uy, Initial residual = 1.65441e-06, Final residual = 4.56884e-08, No Iterations 2
smoothSolver:  Solving for Uz, Initial residual = 2.83698e-06, Final residual = 6.98665e-08, No Iterations 2
GAMG:  Solving for p, Initial residual = 4.04823e-06, Final residual = 9.39351e-07, No Iterations 2
GAMG:  Solving for p, Initial residual = 2.4572e-06, Final residual = 6.19648e-07, No Iterations 1
GAMG:  Solving for p, Initial residual = 1.05802e-06, Final residual = 4.38712e-07, No Iterations 1
time step continuity errors : sum local = 5.7148e-10, global = -6.72796e-12, cumulative = 8.51964e-05
smoothSolver:  Solving for epsilon, Initial residual = 0.028698, Final residual = 0.000374344, No Iterations 1
smoothSolver:  Solving for k, Initial residual = 3.91891e-07, Final residual = 4.36965e-08, No Iterations 1
ExecutionTime = 528.621 s  ClockTime = 534 s

Time = 986s

smoothSolver:  Solving for Ux, Initial residual = 9.05119e-08, Final residual = 9.05119e-08, No Iterations 0
smoothSolver:  Solving for Uy, Initial residual = 1.79884e-06, Final residual = 4.70998e-08, No Iterations 2
smoothSolver:  Solving for Uz, Initial residual = 2.97465e-06, Final residual = 7.29644e-08, No Iterations 2
GAMG:  Solving for p, Initial residual = 4.17569e-06, Final residual = 9.3819e-07, No Iterations 2
GAMG:  Solving for p, Initial residual = 2.35018e-06, Final residual = 6.17655e-07, No Iterations 1
GAMG:  Solving for p, Initial residual = 1.01962e-06, Final residual = 4.41791e-07, No Iterations 1
time step continuity errors : sum local = 5.75496e-10, global = -4.71878e-12, cumulative = 8.51964e-05
smoothSolver:  Solving for epsilon, Initial residual = 0.028698, Final residual = 0.000374344, No Iterations 1
smoothSolver:  Solving for k, Initial residual = 4.01589e-07, Final residual = 4.64014e-08, No Iterations 1
ExecutionTime = 529.207 s  ClockTime = 535 s

Time = 987s

smoothSolver:  Solving for Ux, Initial residual = 9.95935e-08, Final residual = 9.95935e-08, No Iterations 0
smoothSolver:  Solving for Uy, Initial residual = 1.74675e-06, Final residual = 4.66828e-08, No Iterations 2
smoothSolver:  Solving for Uz, Initial residual = 2.94698e-06, Final residual = 7.02011e-08, No Iterations 2
GAMG:  Solving for p, Initial residual = 4.44493e-06, Final residual = 6.12068e-07, No Iterations 3
GAMG:  Solving for p, Initial residual = 2.28336e-06, Final residual = 4.77794e-07, No Iterations 1
GAMG:  Solving for p, Initial residual = 8.89607e-07, Final residual = 8.89607e-07, No Iterations 0
time step continuity errors : sum local = 1.15883e-09, global = -7.49209e-12, cumulative = 8.51964e-05
smoothSolver:  Solving for epsilon, Initial residual = 0.028698, Final residual = 0.000374343, No Iterations 1
smoothSolver:  Solving for k, Initial residual = 3.88867e-07, Final residual = 4.34757e-08, No Iterations 1
ExecutionTime = 529.668 s  ClockTime = 535 s

Time = 988s

smoothSolver:  Solving for Ux, Initial residual = 1.08503e-07, Final residual = 9.71193e-09, No Iterations 1
smoothSolver:  Solving for Uy, Initial residual = 1.64632e-06, Final residual = 4.54653e-08, No Iterations 2
smoothSolver:  Solving for Uz, Initial residual = 2.86102e-06, Final residual = 6.71527e-08, No Iterations 2
GAMG:  Solving for p, Initial residual = 3.94591e-06, Final residual = 9.25985e-07, No Iterations 2
GAMG:  Solving for p, Initial residual = 2.34804e-06, Final residual = 5.9972e-07, No Iterations 1
GAMG:  Solving for p, Initial residual = 9.99549e-07, Final residual = 9.99549e-07, No Iterations 0
time step continuity errors : sum local = 1.30206e-09, global = -4.55824e-12, cumulative = 8.51964e-05
smoothSolver:  Solving for epsilon, Initial residual = 0.028698, Final residual = 0.000374341, No Iterations 1
smoothSolver:  Solving for k, Initial residual = 4.05603e-07, Final residual = 4.66607e-08, No Iterations 1
ExecutionTime = 530.082 s  ClockTime = 536 s

Time = 989s

smoothSolver:  Solving for Ux, Initial residual = 9.1572e-08, Final residual = 9.1572e-08, No Iterations 0
smoothSolver:  Solving for Uy, Initial residual = 1.671e-06, Final residual = 4.52013e-08, No Iterations 2
smoothSolver:  Solving for Uz, Initial residual = 2.91116e-06, Final residual = 6.97056e-08, No Iterations 2
GAMG:  Solving for p, Initial residual = 4.13704e-06, Final residual = 9.6055e-07, No Iterations 2
GAMG:  Solving for p, Initial residual = 2.2971e-06, Final residual = 6.23272e-07, No Iterations 1
GAMG:  Solving for p, Initial residual = 1.01634e-06, Final residual = 4.23474e-07, No Iterations 1
time step continuity errors : sum local = 5.51631e-10, global = -1.1239e-12, cumulative = 8.51964e-05
smoothSolver:  Solving for epsilon, Initial residual = 0.028698, Final residual = 0.000374342, No Iterations 1
smoothSolver:  Solving for k, Initial residual = 3.90127e-07, Final residual = 4.34826e-08, No Iterations 1
ExecutionTime = 530.505 s  ClockTime = 536 s

Time = 990s

smoothSolver:  Solving for Ux, Initial residual = 1.02625e-07, Final residual = 8.96781e-09, No Iterations 1
smoothSolver:  Solving for Uy, Initial residual = 1.67656e-06, Final residual = 4.58682e-08, No Iterations 2
smoothSolver:  Solving for Uz, Initial residual = 2.8913e-06, Final residual = 6.94914e-08, No Iterations 2
GAMG:  Solving for p, Initial residual = 3.9119e-06, Final residual = 8.75993e-07, No Iterations 2
GAMG:  Solving for p, Initial residual = 2.12737e-06, Final residual = 5.58615e-07, No Iterations 1
GAMG:  Solving for p, Initial residual = 9.16651e-07, Final residual = 9.16651e-07, No Iterations 0
time step continuity errors : sum local = 1.19407e-09, global = 4.64627e-12, cumulative = 8.51964e-05
smoothSolver:  Solving for epsilon, Initial residual = 0.0286981, Final residual = 0.000374345, No Iterations 1
smoothSolver:  Solving for k, Initial residual = 4.05235e-07, Final residual = 4.6619e-08, No Iterations 1
ExecutionTime = 530.911 s  ClockTime = 537 s

Time = 991s

smoothSolver:  Solving for Ux, Initial residual = 8.85452e-08, Final residual = 8.85452e-08, No Iterations 0
smoothSolver:  Solving for Uy, Initial residual = 1.74084e-06, Final residual = 4.71131e-08, No Iterations 2
smoothSolver:  Solving for Uz, Initial residual = 2.84919e-06, Final residual = 7.111e-08, No Iterations 2
GAMG:  Solving for p, Initial residual = 4.22497e-06, Final residual = 9.83401e-07, No Iterations 2
GAMG:  Solving for p, Initial residual = 2.27987e-06, Final residual = 6.23556e-07, No Iterations 1
GAMG:  Solving for p, Initial residual = 9.96611e-07, Final residual = 9.96611e-07, No Iterations 0
time step continuity errors : sum local = 1.29822e-09, global = 7.56389e-12, cumulative = 8.51964e-05
smoothSolver:  Solving for epsilon, Initial residual = 0.028698, Final residual = 0.000374343, No Iterations 1
smoothSolver:  Solving for k, Initial residual = 3.89027e-07, Final residual = 4.35428e-08, No Iterations 1
ExecutionTime = 531.323 s  ClockTime = 537 s

Time = 992s

smoothSolver:  Solving for Ux, Initial residual = 9.7848e-08, Final residual = 9.7848e-08, No Iterations 0
smoothSolver:  Solving for Uy, Initial residual = 1.69796e-06, Final residual = 4.55772e-08, No Iterations 2
smoothSolver:  Solving for Uz, Initial residual = 2.85436e-06, Final residual = 6.84842e-08, No Iterations 2
GAMG:  Solving for p, Initial residual = 4.51247e-06, Final residual = 6.52235e-07, No Iterations 3
GAMG:  Solving for p, Initial residual = 2.48785e-06, Final residual = 5.17045e-07, No Iterations 1
GAMG:  Solving for p, Initial residual = 9.79341e-07, Final residual = 9.79341e-07, No Iterations 0
time step continuity errors : sum local = 1.27573e-09, global = 7.67403e-12, cumulative = 8.51964e-05
smoothSolver:  Solving for epsilon, Initial residual = 0.0286981, Final residual = 0.00037434, No Iterations 1
smoothSolver:  Solving for k, Initial residual = 4.01236e-07, Final residual = 4.62926e-08, No Iterations 1
ExecutionTime = 531.754 s  ClockTime = 538 s

Time = 993s

smoothSolver:  Solving for Ux, Initial residual = 1.09973e-07, Final residual = 9.68953e-09, No Iterations 1
smoothSolver:  Solving for Uy, Initial residual = 1.6422e-06, Final residual = 4.41315e-08, No Iterations 2
smoothSolver:  Solving for Uz, Initial residual = 2.93971e-06, Final residual = 6.9527e-08, No Iterations 2
GAMG:  Solving for p, Initial residual = 3.93166e-06, Final residual = 9.30209e-07, No Iterations 2
GAMG:  Solving for p, Initial residual = 2.46871e-06, Final residual = 6.25099e-07, No Iterations 1
GAMG:  Solving for p, Initial residual = 1.05998e-06, Final residual = 4.47412e-07, No Iterations 1
time step continuity errors : sum local = 5.82813e-10, global = 4.19915e-12, cumulative = 8.51964e-05
smoothSolver:  Solving for epsilon, Initial residual = 0.0286981, Final residual = 0.000374341, No Iterations 1
smoothSolver:  Solving for k, Initial residual = 3.92149e-07, Final residual = 4.369e-08, No Iterations 1
ExecutionTime = 532.186 s  ClockTime = 538 s

Time = 994s

smoothSolver:  Solving for Ux, Initial residual = 9.4698e-08, Final residual = 9.4698e-08, No Iterations 0
smoothSolver:  Solving for Uy, Initial residual = 1.66565e-06, Final residual = 4.52454e-08, No Iterations 2
smoothSolver:  Solving for Uz, Initial residual = 2.87226e-06, Final residual = 7.01614e-08, No Iterations 2
GAMG:  Solving for p, Initial residual = 4.11798e-06, Final residual = 6.06971e-07, No Iterations 3
GAMG:  Solving for p, Initial residual = 2.30574e-06, Final residual = 4.84721e-07, No Iterations 1
GAMG:  Solving for p, Initial residual = 9.09209e-07, Final residual = 9.09209e-07, No Iterations 0
time step continuity errors : sum local = 1.18438e-09, global = 6.62263e-12, cumulative = 8.51964e-05
smoothSolver:  Solving for epsilon, Initial residual = 0.0286981, Final residual = 0.000374344, No Iterations 1
smoothSolver:  Solving for k, Initial residual = 4.02716e-07, Final residual = 4.62837e-08, No Iterations 1
ExecutionTime = 532.614 s  ClockTime = 538 s

Time = 995s

smoothSolver:  Solving for Ux, Initial residual = 1.03904e-07, Final residual = 9.05187e-09, No Iterations 1
smoothSolver:  Solving for Uy, Initial residual = 1.69039e-06, Final residual = 4.62505e-08, No Iterations 2
smoothSolver:  Solving for Uz, Initial residual = 2.86491e-06, Final residual = 6.79382e-08, No Iterations 2
GAMG:  Solving for p, Initial residual = 4.03797e-06, Final residual = 9.22388e-07, No Iterations 2
GAMG:  Solving for p, Initial residual = 2.26324e-06, Final residual = 5.92415e-07, No Iterations 1
GAMG:  Solving for p, Initial residual = 9.72299e-07, Final residual = 9.72299e-07, No Iterations 0
time step continuity errors : sum local = 1.26655e-09, global = 1.35917e-12, cumulative = 8.51964e-05
smoothSolver:  Solving for epsilon, Initial residual = 0.028698, Final residual = 0.00037434, No Iterations 1
smoothSolver:  Solving for k, Initial residual = 3.92613e-07, Final residual = 4.37252e-08, No Iterations 1
ExecutionTime = 533.028 s  ClockTime = 539 s

Time = 996s

smoothSolver:  Solving for Ux, Initial residual = 9.0464e-08, Final residual = 9.0464e-08, No Iterations 0
smoothSolver:  Solving for Uy, Initial residual = 1.76881e-06, Final residual = 4.75195e-08, No Iterations 2
smoothSolver:  Solving for Uz, Initial residual = 2.96053e-06, Final residual = 6.99612e-08, No Iterations 2
GAMG:  Solving for p, Initial residual = 4.28543e-06, Final residual = 9.90005e-07, No Iterations 2
GAMG:  Solving for p, Initial residual = 2.31878e-06, Final residual = 6.30665e-07, No Iterations 1
GAMG:  Solving for p, Initial residual = 1.01023e-06, Final residual = 4.23219e-07, No Iterations 1
time step continuity errors : sum local = 5.51304e-10, global = -3.8418e-13, cumulative = 8.51964e-05
smoothSolver:  Solving for epsilon, Initial residual = 0.0286981, Final residual = 0.000374341, No Iterations 1
smoothSolver:  Solving for k, Initial residual = 4.02038e-07, Final residual = 4.63807e-08, No Iterations 1
ExecutionTime = 533.455 s  ClockTime = 539 s

Time = 997s

smoothSolver:  Solving for Ux, Initial residual = 1.00388e-07, Final residual = 8.58047e-09, No Iterations 1
smoothSolver:  Solving for Uy, Initial residual = 1.75302e-06, Final residual = 4.72035e-08, No Iterations 2
smoothSolver:  Solving for Uz, Initial residual = 2.9023e-06, Final residual = 7.07029e-08, No Iterations 2
GAMG:  Solving for p, Initial residual = 3.90114e-06, Final residual = 8.84278e-07, No Iterations 2
GAMG:  Solving for p, Initial residual = 2.18029e-06, Final residual = 5.73775e-07, No Iterations 1
GAMG:  Solving for p, Initial residual = 9.4609e-07, Final residual = 9.4609e-07, No Iterations 0
time step continuity errors : sum local = 1.23241e-09, global = -7.35207e-12, cumulative = 8.51964e-05
smoothSolver:  Solving for epsilon, Initial residual = 0.028698, Final residual = 0.000374343, No Iterations 1
smoothSolver:  Solving for k, Initial residual = 3.91142e-07, Final residual = 4.36052e-08, No Iterations 1
ExecutionTime = 533.868 s  ClockTime = 540 s

Time = 998s

smoothSolver:  Solving for Ux, Initial residual = 8.63477e-08, Final residual = 8.63477e-08, No Iterations 0
smoothSolver:  Solving for Uy, Initial residual = 1.74942e-06, Final residual = 4.58507e-08, No Iterations 2
smoothSolver:  Solving for Uz, Initial residual = 2.89476e-06, Final residual = 7.05668e-08, No Iterations 2
GAMG:  Solving for p, Initial residual = 4.18647e-06, Final residual = 9.57498e-07, No Iterations 2
GAMG:  Solving for p, Initial residual = 2.35603e-06, Final residual = 6.22462e-07, No Iterations 1
GAMG:  Solving for p, Initial residual = 1.01953e-06, Final residual = 4.45955e-07, No Iterations 1
time step continuity errors : sum local = 5.8092e-10, global = -4.17494e-12, cumulative = 8.51964e-05
smoothSolver:  Solving for epsilon, Initial residual = 0.0286981, Final residual = 0.000374345, No Iterations 1
smoothSolver:  Solving for k, Initial residual = 4.00278e-07, Final residual = 4.62677e-08, No Iterations 1
ExecutionTime = 534.315 s  ClockTime = 540 s

Time = 999s

smoothSolver:  Solving for Ux, Initial residual = 9.73002e-08, Final residual = 9.73002e-08, No Iterations 0
smoothSolver:  Solving for Uy, Initial residual = 1.66985e-06, Final residual = 4.40918e-08, No Iterations 2
smoothSolver:  Solving for Uz, Initial residual = 2.86996e-06, Final residual = 6.91393e-08, No Iterations 2
GAMG:  Solving for p, Initial residual = 4.24146e-06, Final residual = 9.8745e-07, No Iterations 2
GAMG:  Solving for p, Initial residual = 2.33476e-06, Final residual = 6.47765e-07, No Iterations 1
GAMG:  Solving for p, Initial residual = 1.03768e-06, Final residual = 4.56265e-07, No Iterations 1
time step continuity errors : sum local = 5.94345e-10, global = -5.51221e-12, cumulative = 8.51964e-05
smoothSolver:  Solving for epsilon, Initial residual = 0.028698, Final residual = 0.000374342, No Iterations 1
smoothSolver:  Solving for k, Initial residual = 3.8663e-07, Final residual = 4.33268e-08, No Iterations 1
ExecutionTime = 534.755 s  ClockTime = 541 s

Time = 1000s

smoothSolver:  Solving for Ux, Initial residual = 1.02585e-07, Final residual = 9.15398e-09, No Iterations 1
smoothSolver:  Solving for Uy, Initial residual = 1.55843e-06, Final residual = 4.32802e-08, No Iterations 2
smoothSolver:  Solving for Uz, Initial residual = 2.78721e-06, Final residual = 6.60721e-08, No Iterations 2
GAMG:  Solving for p, Initial residual = 3.88276e-06, Final residual = 9.22182e-07, No Iterations 2
GAMG:  Solving for p, Initial residual = 2.29518e-06, Final residual = 5.95376e-07, No Iterations 1
GAMG:  Solving for p, Initial residual = 9.80801e-07, Final residual = 9.80801e-07, No Iterations 0
time step continuity errors : sum local = 1.27763e-09, global = -6.95908e-12, cumulative = 8.51964e-05
smoothSolver:  Solving for epsilon, Initial residual = 0.028698, Final residual = 0.000374341, No Iterations 1
smoothSolver:  Solving for k, Initial residual = 4.03242e-07, Final residual = 4.64887e-08, No Iterations 1
ExecutionTime = 535.899 s  ClockTime = 542 s

End

