/*---------------------------------------------------------------------------*\
  =========                 |
  \\      /  F ield         | OpenFOAM: The Open Source CFD Toolbox
   \\    /   O peration     | Website:  https://openfoam.org
    \\  /    A nd           | Version:  13
     \\/     M anipulation  |
\*---------------------------------------------------------------------------*/
Build  : 13-441953dfbb42
Exec   : foamRun -solver incompressibleFluid
Date   : May 12 2026
Time   : 15:28:53
Host   : "openfoam"
PID    : 2493
I/O    : uncollated
Case   : /home/ubuntu/OpenFOAM/ubuntu-v13/run/sRiverTest/rans/summer
nProcs : 1
sigFpe : Floating point exception trapping - not supported on this platform
fileModificationChecking : Monitoring run-time modified files using timeStampMaster (fileModificationSkew 10)
allowSystemOperations : Allowing user-supplied system call operations

// * * * * * * * * * * * * * * * * * * * * * * * * * * * * * * * * * * * * * //
Create time

Create mesh for time = 0

Selecting solver incompressibleFluid
Selecting viscosity model constant
Selecting turbulence model type RAS
    Selecting RAS turbulence model kEpsilon
No MRF models present


SIMPLE: Convergence criteria found
        p: tolerance 1e-05
        U: tolerance 1e-06
        k: tolerance 1e-06
        epsilon: tolerance 1e-06


SIMPLE: Operating solver in steady-state mode with 1 outer corrector
SIMPLE: Operating solver in SIMPLE mode



Starting time loop

Time = 1s

smoothSolver:  Solving for Ux, Initial residual = 1, Final residual = 0.0821469, No Iterations 1
smoothSolver:  Solving for Uy, Initial residual = 1, Final residual = 0.0381074, No Iterations 2
smoothSolver:  Solving for Uz, Initial residual = 1, Final residual = 0.0834376, No Iterations 1
GAMG:  Solving for p, Initial residual = 1, Final residual = 0.0498261, No Iterations 79
GAMG:  Solving for p, Initial residual = 0.199803, Final residual = 0.00631076, No Iterations 3
GAMG:  Solving for p, Initial residual = 0.0514181, Final residual = 0.00182344, No Iterations 3
time step continuity errors : sum local = 0.000384171, global = -2.79985e-05, cumulative = -2.79985e-05
smoothSolver:  Solving for epsilon, Initial residual = 0.500535, Final residual = 0.00168896, No Iterations 1
smoothSolver:  Solving for k, Initial residual = 1, Final residual = 0.0102097, No Iterations 1
ExecutionTime = 2.53739 s  ClockTime = 3 s

Time = 2s

smoothSolver:  Solving for Ux, Initial residual = 0.507218, Final residual = 0.0355944, No Iterations 1
smoothSolver:  Solving for Uy, Initial residual = 0.548681, Final residual = 0.0159217, No Iterations 2
smoothSolver:  Solving for Uz, Initial residual = 0.259917, Final residual = 0.00971507, No Iterations 2
GAMG:  Solving for p, Initial residual = 0.0494464, Final residual = 0.00238094, No Iterations 60
GAMG:  Solving for p, Initial residual = 0.136441, Final residual = 0.00580355, No Iterations 3
GAMG:  Solving for p, Initial residual = 0.0400238, Final residual = 0.0015002, No Iterations 4
time step continuity errors : sum local = 0.000245098, global = 2.94216e-05, cumulative = 1.42306e-06
smoothSolver:  Solving for epsilon, Initial residual = 0.234237, Final residual = 0.00012313, No Iterations 1
smoothSolver:  Solving for k, Initial residual = 0.21834, Final residual = 0.00246335, No Iterations 1
ExecutionTime = 4.1627 s  ClockTime = 5 s

Time = 3s

smoothSolver:  Solving for Ux, Initial residual = 0.309701, Final residual = 0.0197742, No Iterations 1
smoothSolver:  Solving for Uy, Initial residual = 0.308376, Final residual = 0.00779693, No Iterations 2
smoothSolver:  Solving for Uz, Initial residual = 0.176831, Final residual = 0.00528816, No Iterations 2
GAMG:  Solving for p, Initial residual = 0.0486214, Final residual = 0.00241352, No Iterations 58
GAMG:  Solving for p, Initial residual = 0.342582, Final residual = 0.013776, No Iterations 3
GAMG:  Solving for p, Initial residual = 0.120036, Final residual = 0.00428965, No Iterations 4
time step continuity errors : sum local = 0.000349621, global = -3.85198e-05, cumulative = -3.70967e-05
smoothSolver:  Solving for epsilon, Initial residual = 0.0547295, Final residual = 4.20416e-05, No Iterations 1
smoothSolver:  Solving for k, Initial residual = 0.0795804, Final residual = 0.00138812, No Iterations 1
ExecutionTime = 5.65282 s  ClockTime = 6 s

Time = 4s

smoothSolver:  Solving for Ux, Initial residual = 0.107545, Final residual = 0.00751627, No Iterations 1
smoothSolver:  Solving for Uy, Initial residual = 0.152058, Final residual = 0.0145254, No Iterations 1
smoothSolver:  Solving for Uz, Initial residual = 0.153422, Final residual = 0.00441342, No Iterations 2
GAMG:  Solving for p, Initial residual = 0.0738599, Final residual = 0.00358124, No Iterations 78
GAMG:  Solving for p, Initial residual = 0.258903, Final residual = 0.00931841, No Iterations 3
GAMG:  Solving for p, Initial residual = 0.0741177, Final residual = 0.00284177, No Iterations 3
time step continuity errors : sum local = 0.000563208, global = -2.58354e-05, cumulative = -6.29321e-05
smoothSolver:  Solving for epsilon, Initial residual = 0.0234273, Final residual = 3.36012e-05, No Iterations 1
smoothSolver:  Solving for k, Initial residual = 0.0454472, Final residual = 0.000920744, No Iterations 1
ExecutionTime = 7.46195 s  ClockTime = 8 s

Time = 5s

smoothSolver:  Solving for Ux, Initial residual = 0.128351, Final residual = 0.00760784, No Iterations 1
smoothSolver:  Solving for Uy, Initial residual = 0.207697, Final residual = 0.0193201, No Iterations 1
smoothSolver:  Solving for Uz, Initial residual = 0.2549, Final residual = 0.00776525, No Iterations 2
GAMG:  Solving for p, Initial residual = 0.0896628, Final residual = 0.00417453, No Iterations 41
GAMG:  Solving for p, Initial residual = 0.148468, Final residual = 0.00593827, No Iterations 3
GAMG:  Solving for p, Initial residual = 0.041404, Final residual = 0.00181062, No Iterations 5
time step continuity errors : sum local = 0.00017065, global = 2.56889e-05, cumulative = -3.72432e-05
smoothSolver:  Solving for epsilon, Initial residual = 0.0139101, Final residual = 3.84921e-05, No Iterations 1
smoothSolver:  Solving for k, Initial residual = 0.0379278, Final residual = 0.000893741, No Iterations 1
ExecutionTime = 8.6438 s  ClockTime = 9 s

Time = 6s

smoothSolver:  Solving for Ux, Initial residual = 0.207621, Final residual = 0.0137055, No Iterations 1
smoothSolver:  Solving for Uy, Initial residual = 0.259547, Final residual = 0.00525192, No Iterations 2
smoothSolver:  Solving for Uz, Initial residual = 0.182664, Final residual = 0.00628892, No Iterations 2
GAMG:  Solving for p, Initial residual = 0.069276, Final residual = 0.00345443, No Iterations 44
GAMG:  Solving for p, Initial residual = 0.275666, Final residual = 0.0102187, No Iterations 3
GAMG:  Solving for p, Initial residual = 0.0923615, Final residual = 0.00382738, No Iterations 4
time step continuity errors : sum local = 0.000241559, global = 3.80749e-05, cumulative = 8.31631e-07
smoothSolver:  Solving for epsilon, Initial residual = 0.00995171, Final residual = 5.28602e-05, No Iterations 1
smoothSolver:  Solving for k, Initial residual = 0.0183991, Final residual = 0.000974055, No Iterations 1
ExecutionTime = 9.8648 s  ClockTime = 10 s

Time = 7s

smoothSolver:  Solving for Ux, Initial residual = 0.0862477, Final residual = 0.00726238, No Iterations 1
smoothSolver:  Solving for Uy, Initial residual = 0.179732, Final residual = 0.0041443, No Iterations 2
smoothSolver:  Solving for Uz, Initial residual = 0.185443, Final residual = 0.00648847, No Iterations 2
GAMG:  Solving for p, Initial residual = 0.115608, Final residual = 0.00532957, No Iterations 62
GAMG:  Solving for p, Initial residual = 0.242718, Final residual = 0.00886551, No Iterations 3
GAMG:  Solving for p, Initial residual = 0.0690271, Final residual = 0.00246319, No Iterations 3
time step continuity errors : sum local = 0.000292407, global = 2.6568e-05, cumulative = 2.73996e-05
smoothSolver:  Solving for epsilon, Initial residual = 0.00794326, Final residual = 7.22208e-05, No Iterations 1
smoothSolver:  Solving for k, Initial residual = 0.014952, Final residual = 0.00102722, No Iterations 1
ExecutionTime = 11.3772 s  ClockTime = 12 s

Time = 8s

smoothSolver:  Solving for Ux, Initial residual = 0.0868391, Final residual = 0.00536658, No Iterations 1
smoothSolver:  Solving for Uy, Initial residual = 0.155402, Final residual = 0.00388636, No Iterations 2
smoothSolver:  Solving for Uz, Initial residual = 0.21183, Final residual = 0.00725091, No Iterations 2
GAMG:  Solving for p, Initial residual = 0.107091, Final residual = 0.00516885, No Iterations 25
GAMG:  Solving for p, Initial residual = 0.181858, Final residual = 0.00693117, No Iterations 3
GAMG:  Solving for p, Initial residual = 0.0491915, Final residual = 0.00228729, No Iterations 5
time step continuity errors : sum local = 0.000127512, global = -1.74368e-05, cumulative = 9.96276e-06
smoothSolver:  Solving for epsilon, Initial residual = 0.00681966, Final residual = 7.22346e-05, No Iterations 1
smoothSolver:  Solving for k, Initial residual = 0.0105718, Final residual = 0.000982472, No Iterations 1
bounding k, min: -0.00132683 max: 16.3886 average: 1.87936
ExecutionTime = 12.2989 s  ClockTime = 13 s

Time = 9s

smoothSolver:  Solving for Ux, Initial residual = 0.0993326, Final residual = 0.00702816, No Iterations 1
smoothSolver:  Solving for Uy, Initial residual = 0.141752, Final residual = 0.00364855, No Iterations 2
smoothSolver:  Solving for Uz, Initial residual = 0.160381, Final residual = 0.00518642, No Iterations 2
GAMG:  Solving for p, Initial residual = 0.0813952, Final residual = 0.00378563, No Iterations 38
GAMG:  Solving for p, Initial residual = 0.205081, Final residual = 0.00777139, No Iterations 3
GAMG:  Solving for p, Initial residual = 0.0692394, Final residual = 0.00324453, No Iterations 5
time step continuity errors : sum local = 0.000119367, global = 1.53446e-05, cumulative = 2.53073e-05
smoothSolver:  Solving for epsilon, Initial residual = 0.00666135, Final residual = 6.64182e-05, No Iterations 1
smoothSolver:  Solving for k, Initial residual = 0.0145598, Final residual = 0.00102041, No Iterations 1
ExecutionTime = 13.4351 s  ClockTime = 14 s

Time = 10s

smoothSolver:  Solving for Ux, Initial residual = 0.0390521, Final residual = 0.00358096, No Iterations 1
smoothSolver:  Solving for Uy, Initial residual = 0.124278, Final residual = 0.00313183, No Iterations 2
smoothSolver:  Solving for Uz, Initial residual = 0.167785, Final residual = 0.00566706, No Iterations 2
GAMG:  Solving for p, Initial residual = 0.127888, Final residual = 0.00610449, No Iterations 54
GAMG:  Solving for p, Initial residual = 0.225217, Final residual = 0.00870242, No Iterations 3
GAMG:  Solving for p, Initial residual = 0.0660885, Final residual = 0.00230931, No Iterations 4
time step continuity errors : sum local = 0.000149537, global = -1.68422e-05, cumulative = 8.46511e-06
smoothSolver:  Solving for epsilon, Initial residual = 0.00722408, Final residual = 6.99948e-05, No Iterations 1
smoothSolver:  Solving for k, Initial residual = 0.0138765, Final residual = 0.000925675, No Iterations 1
bounding k, min: -0.000199694 max: 16.1532 average: 1.94841
ExecutionTime = 14.8393 s  ClockTime = 15 s

Time = 11s

smoothSolver:  Solving for Ux, Initial residual = 0.0438801, Final residual = 0.00366709, No Iterations 1
smoothSolver:  Solving for Uy, Initial residual = 0.142934, Final residual = 0.014271, No Iterations 1
smoothSolver:  Solving for Uz, Initial residual = 0.204457, Final residual = 0.00653211, No Iterations 2
GAMG:  Solving for p, Initial residual = 0.14968, Final residual = 0.00727927, No Iterations 27
GAMG:  Solving for p, Initial residual = 0.20893, Final residual = 0.00836321, No Iterations 3
GAMG:  Solving for p, Initial residual = 0.0578124, Final residual = 0.00269752, No Iterations 7
time step continuity errors : sum local = 8.38032e-05, global = 1.39881e-05, cumulative = 2.24532e-05
smoothSolver:  Solving for epsilon, Initial residual = 0.00786992, Final residual = 6.52671e-05, No Iterations 1
smoothSolver:  Solving for k, Initial residual = 0.0156563, Final residual = 0.000842503, No Iterations 1
bounding k, min: -0.00595345 max: 16.1193 average: 1.92468
ExecutionTime = 15.8228 s  ClockTime = 16 s

Time = 12s

smoothSolver:  Solving for Ux, Initial residual = 0.0542478, Final residual = 0.00442526, No Iterations 1
smoothSolver:  Solving for Uy, Initial residual = 0.143946, Final residual = 0.00338405, No Iterations 2
smoothSolver:  Solving for Uz, Initial residual = 0.158344, Final residual = 0.00523853, No Iterations 2
GAMG:  Solving for p, Initial residual = 0.121148, Final residual = 0.00588661, No Iterations 26
GAMG:  Solving for p, Initial residual = 0.183459, Final residual = 0.00806622, No Iterations 3
GAMG:  Solving for p, Initial residual = 0.0606631, Final residual = 0.00294432, No Iterations 9
time step continuity errors : sum local = 6.3069e-05, global = -1.04554e-05, cumulative = 1.19978e-05
smoothSolver:  Solving for epsilon, Initial residual = 0.00987735, Final residual = 7.59563e-05, No Iterations 1
smoothSolver:  Solving for k, Initial residual = 0.0158104, Final residual = 0.000856613, No Iterations 1
bounding k, min: -0.0123885 max: 16.1181 average: 1.86509
ExecutionTime = 16.8283 s  ClockTime = 17 s

Time = 13s

smoothSolver:  Solving for Ux, Initial residual = 0.0253816, Final residual = 0.00064658, No Iterations 2
smoothSolver:  Solving for Uy, Initial residual = 0.11831, Final residual = 0.00337016, No Iterations 2
smoothSolver:  Solving for Uz, Initial residual = 0.136577, Final residual = 0.00488205, No Iterations 2
GAMG:  Solving for p, Initial residual = 0.179326, Final residual = 0.00836467, No Iterations 44
GAMG:  Solving for p, Initial residual = 0.19589, Final residual = 0.00738776, No Iterations 3
GAMG:  Solving for p, Initial residual = 0.0567149, Final residual = 0.00264068, No Iterations 4
time step continuity errors : sum local = 0.000101081, global = 1.85035e-05, cumulative = 3.05013e-05
smoothSolver:  Solving for epsilon, Initial residual = 0.0136898, Final residual = 0.000104017, No Iterations 1
smoothSolver:  Solving for k, Initial residual = 0.0128615, Final residual = 0.00088828, No Iterations 1
bounding k, min: -0.107089 max: 16.1021 average: 1.80385
ExecutionTime = 18.0617 s  ClockTime = 18 s

Time = 14s

smoothSolver:  Solving for Ux, Initial residual = 0.0280512, Final residual = 0.00205481, No Iterations 1
smoothSolver:  Solving for Uy, Initial residual = 0.0992053, Final residual = 0.00327345, No Iterations 2
smoothSolver:  Solving for Uz, Initial residual = 0.162047, Final residual = 0.00545696, No Iterations 2
GAMG:  Solving for p, Initial residual = 0.17869, Final residual = 0.00876605, No Iterations 31
GAMG:  Solving for p, Initial residual = 0.215575, Final residual = 0.00860376, No Iterations 3
GAMG:  Solving for p, Initial residual = 0.0576098, Final residual = 0.00283267, No Iterations 7
time step continuity errors : sum local = 6.53448e-05, global = -1.02433e-05, cumulative = 2.0258e-05
smoothSolver:  Solving for epsilon, Initial residual = 0.0194353, Final residual = 0.000136765, No Iterations 1
smoothSolver:  Solving for k, Initial residual = 0.013222, Final residual = 0.000836609, No Iterations 1
bounding k, min: -0.00262559 max: 16.0008 average: 1.76901
ExecutionTime = 19.1205 s  ClockTime = 20 s

Time = 15s

smoothSolver:  Solving for Ux, Initial residual = 0.031535, Final residual = 0.00249205, No Iterations 1
smoothSolver:  Solving for Uy, Initial residual = 0.0994708, Final residual = 0.00319747, No Iterations 2
smoothSolver:  Solving for Uz, Initial residual = 0.154808, Final residual = 0.004926, No Iterations 2
GAMG:  Solving for p, Initial residual = 0.135847, Final residual = 0.00593075, No Iterations 22
GAMG:  Solving for p, Initial residual = 0.185085, Final residual = 0.00893029, No Iterations 3
GAMG:  Solving for p, Initial residual = 0.0574623, Final residual = 0.00285857, No Iterations 9
time step continuity errors : sum local = 3.71851e-05, global = 5.61761e-06, cumulative = 2.58756e-05
smoothSolver:  Solving for epsilon, Initial residual = 0.0245213, Final residual = 0.000151585, No Iterations 1
smoothSolver:  Solving for k, Initial residual = 0.0138021, Final residual = 0.00080298, No Iterations 1
bounding k, min: -0.0567599 max: 15.7786 average: 1.75845
ExecutionTime = 20.058 s  ClockTime = 20 s

Time = 16s

smoothSolver:  Solving for Ux, Initial residual = 0.0191376, Final residual = 0.000498331, No Iterations 2
smoothSolver:  Solving for Uy, Initial residual = 0.101984, Final residual = 0.00327811, No Iterations 2
smoothSolver:  Solving for Uz, Initial residual = 0.143395, Final residual = 0.00465158, No Iterations 2
GAMG:  Solving for p, Initial residual = 0.163847, Final residual = 0.00769774, No Iterations 34
GAMG:  Solving for p, Initial residual = 0.171895, Final residual = 0.00692334, No Iterations 3
GAMG:  Solving for p, Initial residual = 0.052594, Final residual = 0.00254706, No Iterations 7
time step continuity errors : sum local = 5.31098e-05, global = 8.32817e-06, cumulative = 3.42038e-05
smoothSolver:  Solving for epsilon, Initial residual = 0.0280398, Final residual = 0.000164372, No Iterations 1
smoothSolver:  Solving for k, Initial residual = 0.0106759, Final residual = 0.000751841, No Iterations 1
bounding k, min: -1.60943e-05 max: 15.4659 average: 1.756
ExecutionTime = 21.1709 s  ClockTime = 22 s

Time = 17s

smoothSolver:  Solving for Ux, Initial residual = 0.0162211, Final residual = 0.000472294, No Iterations 2
smoothSolver:  Solving for Uy, Initial residual = 0.0885894, Final residual = 0.00319101, No Iterations 2
smoothSolver:  Solving for Uz, Initial residual = 0.145547, Final residual = 0.00474333, No Iterations 2
GAMG:  Solving for p, Initial residual = 0.22146, Final residual = 0.0103221, No Iterations 31
GAMG:  Solving for p, Initial residual = 0.241634, Final residual = 0.00981085, No Iterations 3
GAMG:  Solving for p, Initial residual = 0.0689091, Final residual = 0.0030816, No Iterations 9
time step continuity errors : sum local = 4.33676e-05, global = 7.92356e-06, cumulative = 4.21274e-05
smoothSolver:  Solving for epsilon, Initial residual = 0.0288471, Final residual = 0.000174761, No Iterations 1
smoothSolver:  Solving for k, Initial residual = 0.0113259, Final residual = 0.000752211, No Iterations 1
bounding k, min: -0.270203 max: 15.1528 average: 1.74801
ExecutionTime = 22.2659 s  ClockTime = 23 s

Time = 18s

smoothSolver:  Solving for Ux, Initial residual = 0.0175489, Final residual = 0.000478586, No Iterations 2
smoothSolver:  Solving for Uy, Initial residual = 0.0835545, Final residual = 0.00300499, No Iterations 2
smoothSolver:  Solving for Uz, Initial residual = 0.130981, Final residual = 0.0042507, No Iterations 2
GAMG:  Solving for p, Initial residual = 0.185593, Final residual = 0.00888878, No Iterations 18
GAMG:  Solving for p, Initial residual = 0.195343, Final residual = 0.00737301, No Iterations 4
GAMG:  Solving for p, Initial residual = 0.0610214, Final residual = 0.00294132, No Iterations 10
time step continuity errors : sum local = 2.71898e-05, global = -3.59693e-06, cumulative = 3.85304e-05
smoothSolver:  Solving for epsilon, Initial residual = 0.0301208, Final residual = 0.000184413, No Iterations 1
smoothSolver:  Solving for k, Initial residual = 0.0115417, Final residual = 0.000747303, No Iterations 1
ExecutionTime = 23.1656 s  ClockTime = 24 s

Time = 19s

smoothSolver:  Solving for Ux, Initial residual = 0.0142595, Final residual = 0.000416047, No Iterations 2
smoothSolver:  Solving for Uy, Initial residual = 0.0837434, Final residual = 0.00289704, No Iterations 2
smoothSolver:  Solving for Uz, Initial residual = 0.125435, Final residual = 0.00403007, No Iterations 2
GAMG:  Solving for p, Initial residual = 0.231452, Final residual = 0.0107187, No Iterations 22
GAMG:  Solving for p, Initial residual = 0.155825, Final residual = 0.00717763, No Iterations 3
GAMG:  Solving for p, Initial residual = 0.0490625, Final residual = 0.00218337, No Iterations 11
time step continuity errors : sum local = 2.96172e-05, global = -5.23821e-06, cumulative = 3.32922e-05
smoothSolver:  Solving for epsilon, Initial residual = 0.0305372, Final residual = 0.000188351, No Iterations 1
smoothSolver:  Solving for k, Initial residual = 0.0103064, Final residual = 0.000740799, No Iterations 1
bounding k, min: -0.0953941 max: 14.7791 average: 1.71167
ExecutionTime = 24.1387 s  ClockTime = 25 s

Time = 20s

smoothSolver:  Solving for Ux, Initial residual = 0.0137046, Final residual = 0.00131219, No Iterations 1
smoothSolver:  Solving for Uy, Initial residual = 0.0762807, Final residual = 0.0029824, No Iterations 2
smoothSolver:  Solving for Uz, Initial residual = 0.130145, Final residual = 0.00388776, No Iterations 2
GAMG:  Solving for p, Initial residual = 0.223297, Final residual = 0.0102742, No Iterations 29
GAMG:  Solving for p, Initial residual = 0.205667, Final residual = 0.00887746, No Iterations 3
GAMG:  Solving for p, Initial residual = 0.0589444, Final residual = 0.00290992, No Iterations 9
time step continuity errors : sum local = 3.4842e-05, global = -6.20594e-06, cumulative = 2.70863e-05
smoothSolver:  Solving for epsilon, Initial residual = 0.0315094, Final residual = 0.000193394, No Iterations 1
smoothSolver:  Solving for k, Initial residual = 0.00915999, Final residual = 0.00070224, No Iterations 1
ExecutionTime = 25.1896 s  ClockTime = 26 s

Time = 21s

smoothSolver:  Solving for Ux, Initial residual = 0.0138856, Final residual = 0.00131558, No Iterations 1
smoothSolver:  Solving for Uy, Initial residual = 0.07289, Final residual = 0.00315827, No Iterations 2
smoothSolver:  Solving for Uz, Initial residual = 0.117707, Final residual = 0.00329459, No Iterations 2
GAMG:  Solving for p, Initial residual = 0.186693, Final residual = 0.0089922, No Iterations 18
GAMG:  Solving for p, Initial residual = 0.246173, Final residual = 0.012094, No Iterations 3
GAMG:  Solving for p, Initial residual = 0.0679467, Final residual = 0.00330396, No Iterations 11
time step continuity errors : sum local = 2.4178e-05, global = 5.03795e-06, cumulative = 3.21242e-05
smoothSolver:  Solving for epsilon, Initial residual = 0.0312118, Final residual = 0.000187028, No Iterations 1
smoothSolver:  Solving for k, Initial residual = 0.00882256, Final residual = 0.000670068, No Iterations 1
bounding k, min: -0.273445 max: 14.7388 average: 1.69279
ExecutionTime = 26.0909 s  ClockTime = 26 s

Time = 22s

smoothSolver:  Solving for Ux, Initial residual = 0.0113188, Final residual = 0.000333702, No Iterations 2
smoothSolver:  Solving for Uy, Initial residual = 0.072246, Final residual = 0.00323779, No Iterations 2
smoothSolver:  Solving for Uz, Initial residual = 0.104882, Final residual = 0.00310708, No Iterations 2
GAMG:  Solving for p, Initial residual = 0.182747, Final residual = 0.00804684, No Iterations 16
GAMG:  Solving for p, Initial residual = 0.153417, Final residual = 0.00631101, No Iterations 4
GAMG:  Solving for p, Initial residual = 0.0462551, Final residual = 0.0022388, No Iterations 12
time step continuity errors : sum local = 1.68326e-05, global = 2.69043e-06, cumulative = 3.48147e-05
smoothSolver:  Solving for epsilon, Initial residual = 0.0319918, Final residual = 0.00018948, No Iterations 1
smoothSolver:  Solving for k, Initial residual = 0.00835262, Final residual = 0.00063647, No Iterations 1
ExecutionTime = 26.9903 s  ClockTime = 27 s

Time = 23s

smoothSolver:  Solving for Ux, Initial residual = 0.0094864, Final residual = 0.000344331, No Iterations 2
smoothSolver:  Solving for Uy, Initial residual = 0.0673434, Final residual = 0.00313313, No Iterations 2
smoothSolver:  Solving for Uz, Initial residual = 0.105702, Final residual = 0.00342817, No Iterations 2
GAMG:  Solving for p, Initial residual = 0.207842, Final residual = 0.00974162, No Iterations 19
GAMG:  Solving for p, Initial residual = 0.192084, Final residual = 0.00823142, No Iterations 4
GAMG:  Solving for p, Initial residual = 0.0599507, Final residual = 0.00299059, No Iterations 16
time step continuity errors : sum local = 1.87361e-05, global = 3.3238e-06, cumulative = 3.81385e-05
smoothSolver:  Solving for epsilon, Initial residual = 0.031553, Final residual = 0.000186887, No Iterations 1
smoothSolver:  Solving for k, Initial residual = 0.00810881, Final residual = 0.000628697, No Iterations 1
bounding k, min: -0.169846 max: 14.7965 average: 1.69043
ExecutionTime = 28.0139 s  ClockTime = 28 s

Time = 24s

smoothSolver:  Solving for Ux, Initial residual = 0.00926076, Final residual = 0.000334432, No Iterations 2
smoothSolver:  Solving for Uy, Initial residual = 0.0621044, Final residual = 0.00285507, No Iterations 2
smoothSolver:  Solving for Uz, Initial residual = 0.112057, Final residual = 0.00362216, No Iterations 2
GAMG:  Solving for p, Initial residual = 0.265819, Final residual = 0.0131828, No Iterations 16
GAMG:  Solving for p, Initial residual = 0.196852, Final residual = 0.0090616, No Iterations 4
GAMG:  Solving for p, Initial residual = 0.0652635, Final residual = 0.00320184, No Iterations 15
time step continuity errors : sum local = 1.80036e-05, global = 3.7217e-06, cumulative = 4.18602e-05
smoothSolver:  Solving for epsilon, Initial residual = 0.0328451, Final residual = 0.000198016, No Iterations 1
smoothSolver:  Solving for k, Initial residual = 0.00782872, Final residual = 0.000611765, No Iterations 1
ExecutionTime = 28.9636 s  ClockTime = 29 s

Time = 25s

smoothSolver:  Solving for Ux, Initial residual = 0.0081993, Final residual = 0.000305245, No Iterations 2
smoothSolver:  Solving for Uy, Initial residual = 0.0636964, Final residual = 0.0026489, No Iterations 2
smoothSolver:  Solving for Uz, Initial residual = 0.117232, Final residual = 0.00354736, No Iterations 2
GAMG:  Solving for p, Initial residual = 0.260182, Final residual = 0.0120875, No Iterations 12
GAMG:  Solving for p, Initial residual = 0.136739, Final residual = 0.00590891, No Iterations 4
GAMG:  Solving for p, Initial residual = 0.0434416, Final residual = 0.00200358, No Iterations 12
time step continuity errors : sum local = 1.33787e-05, global = -2.02722e-06, cumulative = 3.9833e-05
smoothSolver:  Solving for epsilon, Initial residual = 0.0328281, Final residual = 0.00020055, No Iterations 1
smoothSolver:  Solving for k, Initial residual = 0.00755333, Final residual = 0.000621926, No Iterations 1
bounding k, min: -0.312265 max: 14.902 average: 1.67681
ExecutionTime = 29.8 s  ClockTime = 30 s

Time = 26s

smoothSolver:  Solving for Ux, Initial residual = 0.00819622, Final residual = 0.000271022, No Iterations 2
smoothSolver:  Solving for Uy, Initial residual = 0.0628945, Final residual = 0.00263142, No Iterations 2
smoothSolver:  Solving for Uz, Initial residual = 0.116165, Final residual = 0.00315307, No Iterations 2
GAMG:  Solving for p, Initial residual = 0.213608, Final residual = 0.00999592, No Iterations 15
GAMG:  Solving for p, Initial residual = 0.129513, Final residual = 0.00616632, No Iterations 4
GAMG:  Solving for p, Initial residual = 0.0421447, Final residual = 0.00187834, No Iterations 16
time step continuity errors : sum local = 1.16741e-05, global = -1.96758e-06, cumulative = 3.78654e-05
smoothSolver:  Solving for epsilon, Initial residual = 0.0341632, Final residual = 0.000211762, No Iterations 1
smoothSolver:  Solving for k, Initial residual = 0.00695981, Final residual = 0.000598705, No Iterations 1
ExecutionTime = 30.7484 s  ClockTime = 31 s

Time = 27s

smoothSolver:  Solving for Ux, Initial residual = 0.00801676, Final residual = 0.000250277, No Iterations 2
smoothSolver:  Solving for Uy, Initial residual = 0.0572491, Final residual = 0.00277088, No Iterations 2
smoothSolver:  Solving for Uz, Initial residual = 0.111188, Final residual = 0.00292071, No Iterations 2
GAMG:  Solving for p, Initial residual = 0.190073, Final residual = 0.00946851, No Iterations 13
GAMG:  Solving for p, Initial residual = 0.165742, Final residual = 0.00717739, No Iterations 4
GAMG:  Solving for p, Initial residual = 0.0526307, Final residual = 0.00246974, No Iterations 12
time step continuity errors : sum local = 1.42731e-05, global = -2.44275e-06, cumulative = 3.54226e-05
smoothSolver:  Solving for epsilon, Initial residual = 0.0344751, Final residual = 0.000214398, No Iterations 1
smoothSolver:  Solving for k, Initial residual = 0.00667437, Final residual = 0.000583375, No Iterations 1
bounding k, min: -0.133314 max: 15.1174 average: 1.65874
ExecutionTime = 31.6006 s  ClockTime = 32 s

Time = 28s

smoothSolver:  Solving for Ux, Initial residual = 0.00698109, Final residual = 0.000245756, No Iterations 2
smoothSolver:  Solving for Uy, Initial residual = 0.0572247, Final residual = 0.00286681, No Iterations 2
smoothSolver:  Solving for Uz, Initial residual = 0.105667, Final residual = 0.00295988, No Iterations 2
GAMG:  Solving for p, Initial residual = 0.182826, Final residual = 0.0087689, No Iterations 11
GAMG:  Solving for p, Initial residual = 0.170361, Final residual = 0.00668646, No Iterations 4
GAMG:  Solving for p, Initial residual = 0.0505771, Final residual = 0.00247023, No Iterations 10
time step continuity errors : sum local = 1.32368e-05, global = 1.96295e-06, cumulative = 3.73856e-05
smoothSolver:  Solving for epsilon, Initial residual = 0.0354475, Final residual = 0.000218459, No Iterations 1
smoothSolver:  Solving for k, Initial residual = 0.00660294, Final residual = 0.000572453, No Iterations 1
ExecutionTime = 32.3829 s  ClockTime = 33 s

Time = 29s

smoothSolver:  Solving for Ux, Initial residual = 0.0060288, Final residual = 0.000249329, No Iterations 2
smoothSolver:  Solving for Uy, Initial residual = 0.0580606, Final residual = 0.0028516, No Iterations 2
smoothSolver:  Solving for Uz, Initial residual = 0.0999089, Final residual = 0.00294288, No Iterations 2
GAMG:  Solving for p, Initial residual = 0.173711, Final residual = 0.00762593, No Iterations 13
GAMG:  Solving for p, Initial residual = 0.115353, Final residual = 0.00450816, No Iterations 6
GAMG:  Solving for p, Initial residual = 0.0372466, Final residual = 0.0016919, No Iterations 12
time step continuity errors : sum local = 8.3406e-06, global = 1.27592e-06, cumulative = 3.86615e-05
smoothSolver:  Solving for epsilon, Initial residual = 0.0360508, Final residual = 0.000219379, No Iterations 1
smoothSolver:  Solving for k, Initial residual = 0.00632174, Final residual = 0.000560819, No Iterations 1
bounding k, min: -0.21432 max: 15.3885 average: 1.65251
ExecutionTime = 33.2709 s  ClockTime = 34 s

Time = 30s

smoothSolver:  Solving for Ux, Initial residual = 0.00574275, Final residual = 0.000251668, No Iterations 2
smoothSolver:  Solving for Uy, Initial residual = 0.0562226, Final residual = 0.00272285, No Iterations 2
smoothSolver:  Solving for Uz, Initial residual = 0.0981785, Final residual = 0.00289524, No Iterations 2
GAMG:  Solving for p, Initial residual = 0.167525, Final residual = 0.00761052, No Iterations 12
GAMG:  Solving for p, Initial residual = 0.0970495, Final residual = 0.00467765, No Iterations 6
GAMG:  Solving for p, Initial residual = 0.0352474, Final residual = 0.00165212, No Iterations 17
time step continuity errors : sum local = 7.55046e-06, global = 1.28493e-06, cumulative = 3.99464e-05
smoothSolver:  Solving for epsilon, Initial residual = 0.0367859, Final residual = 0.000222216, No Iterations 1
smoothSolver:  Solving for k, Initial residual = 0.00636533, Final residual = 0.000549413, No Iterations 1
ExecutionTime = 34.2201 s  ClockTime = 35 s

Time = 31s

smoothSolver:  Solving for Ux, Initial residual = 0.00541652, Final residual = 0.000244845, No Iterations 2
smoothSolver:  Solving for Uy, Initial residual = 0.0520503, Final residual = 0.00254577, No Iterations 2
smoothSolver:  Solving for Uz, Initial residual = 0.0990042, Final residual = 0.0029286, No Iterations 2
GAMG:  Solving for p, Initial residual = 0.167827, Final residual = 0.00764822, No Iterations 10
GAMG:  Solving for p, Initial residual = 0.11081, Final residual = 0.00539051, No Iterations 4
GAMG:  Solving for p, Initial residual = 0.0377226, Final residual = 0.0018457, No Iterations 15
time step continuity errors : sum local = 8.25091e-06, global = 1.77619e-06, cumulative = 4.17226e-05
smoothSolver:  Solving for epsilon, Initial residual = 0.0371508, Final residual = 0.000224987, No Iterations 1
smoothSolver:  Solving for k, Initial residual = 0.00605669, Final residual = 0.000532984, No Iterations 1
bounding k, min: -0.0304183 max: 15.5593 average: 1.65181
ExecutionTime = 35.0722 s  ClockTime = 35 s

Time = 32s

smoothSolver:  Solving for Ux, Initial residual = 0.00527701, Final residual = 0.000229243, No Iterations 2
smoothSolver:  Solving for Uy, Initial residual = 0.0474724, Final residual = 0.00242464, No Iterations 2
smoothSolver:  Solving for Uz, Initial residual = 0.0984163, Final residual = 0.00284769, No Iterations 2
GAMG:  Solving for p, Initial residual = 0.172304, Final residual = 0.00773323, No Iterations 11
GAMG:  Solving for p, Initial residual = 0.106096, Final residual = 0.00430689, No Iterations 6
GAMG:  Solving for p, Initial residual = 0.0365101, Final residual = 0.00180211, No Iterations 12
time step continuity errors : sum local = 7.79076e-06, global = -1.27363e-06, cumulative = 4.0449e-05
smoothSolver:  Solving for epsilon, Initial residual = 0.0376906, Final residual = 0.000229735, No Iterations 1
smoothSolver:  Solving for k, Initial residual = 0.00575203, Final residual = 0.000519405, No Iterations 1
ExecutionTime = 35.9197 s  ClockTime = 36 s

Time = 33s

smoothSolver:  Solving for Ux, Initial residual = 0.00514335, Final residual = 0.000215424, No Iterations 2
smoothSolver:  Solving for Uy, Initial residual = 0.0456267, Final residual = 0.00242362, No Iterations 2
smoothSolver:  Solving for Uz, Initial residual = 0.0968356, Final residual = 0.00274971, No Iterations 2
GAMG:  Solving for p, Initial residual = 0.168108, Final residual = 0.00814409, No Iterations 9
GAMG:  Solving for p, Initial residual = 0.0832031, Final residual = 0.00351212, No Iterations 8
GAMG:  Solving for p, Initial residual = 0.0312012, Final residual = 0.00146994, No Iterations 12
time step continuity errors : sum local = 5.8657e-06, global = -8.75035e-07, cumulative = 3.9574e-05
smoothSolver:  Solving for epsilon, Initial residual = 0.0383687, Final residual = 0.000236707, No Iterations 1
smoothSolver:  Solving for k, Initial residual = 0.0056134, Final residual = 0.000509798, No Iterations 1
bounding k, min: -0.0941151 max: 15.5456 average: 1.64648
ExecutionTime = 36.7885 s  ClockTime = 37 s

Time = 34s

smoothSolver:  Solving for Ux, Initial residual = 0.00476799, Final residual = 0.000204511, No Iterations 2
smoothSolver:  Solving for Uy, Initial residual = 0.0487446, Final residual = 0.00255643, No Iterations 2
smoothSolver:  Solving for Uz, Initial residual = 0.0990852, Final residual = 0.00279717, No Iterations 2
GAMG:  Solving for p, Initial residual = 0.163654, Final residual = 0.00764202, No Iterations 9
GAMG:  Solving for p, Initial residual = 0.0924106, Final residual = 0.00382251, No Iterations 6
GAMG:  Solving for p, Initial residual = 0.0316126, Final residual = 0.00148082, No Iterations 12
time step continuity errors : sum local = 5.93643e-06, global = 1.237e-06, cumulative = 4.0811e-05
smoothSolver:  Solving for epsilon, Initial residual = 0.0391417, Final residual = 0.000242811, No Iterations 1
smoothSolver:  Solving for k, Initial residual = 0.00552984, Final residual = 0.000497543, No Iterations 1
ExecutionTime = 37.6065 s  ClockTime = 38 s

Time = 35s

smoothSolver:  Solving for Ux, Initial residual = 0.00429217, Final residual = 0.000197173, No Iterations 2
smoothSolver:  Solving for Uy, Initial residual = 0.0505679, Final residual = 0.00267823, No Iterations 2
smoothSolver:  Solving for Uz, Initial residual = 0.100809, Final residual = 0.00288051, No Iterations 2
GAMG:  Solving for p, Initial residual = 0.161128, Final residual = 0.00677401, No Iterations 11
GAMG:  Solving for p, Initial residual = 0.0998962, Final residual = 0.00454883, No Iterations 4
GAMG:  Solving for p, Initial residual = 0.0316402, Final residual = 0.00143576, No Iterations 12
time step continuity errors : sum local = 6.02058e-06, global = 9.88578e-07, cumulative = 4.17995e-05
smoothSolver:  Solving for epsilon, Initial residual = 0.0398287, Final residual = 0.00024652, No Iterations 1
smoothSolver:  Solving for k, Initial residual = 0.00529872, Final residual = 0.00048393, No Iterations 1
ExecutionTime = 38.4177 s  ClockTime = 39 s

Time = 36s

smoothSolver:  Solving for Ux, Initial residual = 0.00403805, Final residual = 0.000193688, No Iterations 2
smoothSolver:  Solving for Uy, Initial residual = 0.0499578, Final residual = 0.00271301, No Iterations 2
smoothSolver:  Solving for Uz, Initial residual = 0.0976408, Final residual = 0.00277976, No Iterations 2
GAMG:  Solving for p, Initial residual = 0.153565, Final residual = 0.00697673, No Iterations 8
GAMG:  Solving for p, Initial residual = 0.0794908, Final residual = 0.00360061, No Iterations 5
GAMG:  Solving for p, Initial residual = 0.0261957, Final residual = 0.0012662, No Iterations 10
time step continuity errors : sum local = 5.28561e-06, global = 7.90226e-07, cumulative = 4.25898e-05
smoothSolver:  Solving for epsilon, Initial residual = 0.0404031, Final residual = 0.000247689, No Iterations 1
smoothSolver:  Solving for k, Initial residual = 0.00501748, Final residual = 0.000467076, No Iterations 1
ExecutionTime = 39.1611 s  ClockTime = 40 s

Time = 37s

smoothSolver:  Solving for Ux, Initial residual = 0.00400538, Final residual = 0.000191958, No Iterations 2
smoothSolver:  Solving for Uy, Initial residual = 0.0468593, Final residual = 0.00266678, No Iterations 2
smoothSolver:  Solving for Uz, Initial residual = 0.0907486, Final residual = 0.00257572, No Iterations 2
GAMG:  Solving for p, Initial residual = 0.143384, Final residual = 0.0067313, No Iterations 7
GAMG:  Solving for p, Initial residual = 0.0605749, Final residual = 0.00291083, No Iterations 6
GAMG:  Solving for p, Initial residual = 0.0207346, Final residual = 0.000899086, No Iterations 13
time step continuity errors : sum local = 3.5728e-06, global = 6.42451e-07, cumulative = 4.32322e-05
smoothSolver:  Solving for epsilon, Initial residual = 0.0409005, Final residual = 0.000250018, No Iterations 1
smoothSolver:  Solving for k, Initial residual = 0.00480271, Final residual = 0.000458597, No Iterations 1
ExecutionTime = 39.9557 s  ClockTime = 40 s

Time = 38s

smoothSolver:  Solving for Ux, Initial residual = 0.00396387, Final residual = 0.00018883, No Iterations 2
smoothSolver:  Solving for Uy, Initial residual = 0.0433815, Final residual = 0.00259521, No Iterations 2
smoothSolver:  Solving for Uz, Initial residual = 0.0857224, Final residual = 0.00248067, No Iterations 2
GAMG:  Solving for p, Initial residual = 0.138179, Final residual = 0.00552015, No Iterations 9
GAMG:  Solving for p, Initial residual = 0.0591611, Final residual = 0.00288269, No Iterations 6
GAMG:  Solving for p, Initial residual = 0.0209522, Final residual = 0.000984487, No Iterations 15
time step continuity errors : sum local = 3.63363e-06, global = 7.60546e-07, cumulative = 4.39928e-05
smoothSolver:  Solving for epsilon, Initial residual = 0.0412787, Final residual = 0.000253054, No Iterations 1
smoothSolver:  Solving for k, Initial residual = 0.00473429, Final residual = 0.000449261, No Iterations 1
ExecutionTime = 40.8188 s  ClockTime = 41 s

Time = 39s

smoothSolver:  Solving for Ux, Initial residual = 0.00374841, Final residual = 0.000182033, No Iterations 2
smoothSolver:  Solving for Uy, Initial residual = 0.0441676, Final residual = 0.00258001, No Iterations 2
smoothSolver:  Solving for Uz, Initial residual = 0.0861537, Final residual = 0.00255594, No Iterations 2
GAMG:  Solving for p, Initial residual = 0.136847, Final residual = 0.00619444, No Iterations 8
GAMG:  Solving for p, Initial residual = 0.0642322, Final residual = 0.00296536, No Iterations 7
GAMG:  Solving for p, Initial residual = 0.0250236, Final residual = 0.00121158, No Iterations 12
time step continuity errors : sum local = 4.22538e-06, global = -7.82002e-07, cumulative = 4.32108e-05
smoothSolver:  Solving for epsilon, Initial residual = 0.041695, Final residual = 0.000257389, No Iterations 1
smoothSolver:  Solving for k, Initial residual = 0.00460855, Final residual = 0.000437274, No Iterations 1
ExecutionTime = 41.632 s  ClockTime = 42 s

Time = 40s

smoothSolver:  Solving for Ux, Initial residual = 0.00355518, Final residual = 0.000174351, No Iterations 2
smoothSolver:  Solving for Uy, Initial residual = 0.0485716, Final residual = 0.00266588, No Iterations 2
smoothSolver:  Solving for Uz, Initial residual = 0.0898183, Final residual = 0.00263049, No Iterations 2
GAMG:  Solving for p, Initial residual = 0.137311, Final residual = 0.00681823, No Iterations 7
GAMG:  Solving for p, Initial residual = 0.0621486, Final residual = 0.00309048, No Iterations 5
GAMG:  Solving for p, Initial residual = 0.0220336, Final residual = 0.00101254, No Iterations 13
time step continuity errors : sum local = 3.43916e-06, global = -7.15264e-07, cumulative = 4.24955e-05
smoothSolver:  Solving for epsilon, Initial residual = 0.0420463, Final residual = 0.000260419, No Iterations 1
smoothSolver:  Solving for k, Initial residual = 0.00445974, Final residual = 0.000426884, No Iterations 1
ExecutionTime = 42.41 s  ClockTime = 43 s

Time = 41s

smoothSolver:  Solving for Ux, Initial residual = 0.00339996, Final residual = 0.000166397, No Iterations 2
smoothSolver:  Solving for Uy, Initial residual = 0.0511702, Final residual = 0.00276904, No Iterations 2
smoothSolver:  Solving for Uz, Initial residual = 0.090263, Final residual = 0.00260581, No Iterations 2
GAMG:  Solving for p, Initial residual = 0.134811, Final residual = 0.00658019, No Iterations 6
GAMG:  Solving for p, Initial residual = 0.0571632, Final residual = 0.0025031, No Iterations 6
GAMG:  Solving for p, Initial residual = 0.0210919, Final residual = 0.000894398, No Iterations 10
time step continuity errors : sum local = 3.08975e-06, global = 3.93035e-07, cumulative = 4.28885e-05
smoothSolver:  Solving for epsilon, Initial residual = 0.0425381, Final residual = 0.000263926, No Iterations 1
smoothSolver:  Solving for k, Initial residual = 0.00430621, Final residual = 0.000415921, No Iterations 1
ExecutionTime = 43.1371 s  ClockTime = 44 s

Time = 42s

smoothSolver:  Solving for Ux, Initial residual = 0.003272, Final residual = 0.000159823, No Iterations 2
smoothSolver:  Solving for Uy, Initial residual = 0.0505758, Final residual = 0.0028223, No Iterations 2
smoothSolver:  Solving for Uz, Initial residual = 0.0865294, Final residual = 0.0025176, No Iterations 2
GAMG:  Solving for p, Initial residual = 0.13069, Final residual = 0.00595458, No Iterations 7
GAMG:  Solving for p, Initial residual = 0.0621946, Final residual = 0.00253635, No Iterations 5
GAMG:  Solving for p, Initial residual = 0.021116, Final residual = 0.000877155, No Iterations 8
time step continuity errors : sum local = 3.08869e-06, global = 3.78929e-07, cumulative = 4.32675e-05
smoothSolver:  Solving for epsilon, Initial residual = 0.0430104, Final residual = 0.000266618, No Iterations 1
smoothSolver:  Solving for k, Initial residual = 0.00417225, Final residual = 0.000407225, No Iterations 1
ExecutionTime = 43.832 s  ClockTime = 44 s

Time = 43s

smoothSolver:  Solving for Ux, Initial residual = 0.00316587, Final residual = 0.000155347, No Iterations 2
smoothSolver:  Solving for Uy, Initial residual = 0.048116, Final residual = 0.00282158, No Iterations 2
smoothSolver:  Solving for Uz, Initial residual = 0.0804108, Final residual = 0.0024198, No Iterations 2
GAMG:  Solving for p, Initial residual = 0.126633, Final residual = 0.00558945, No Iterations 7
GAMG:  Solving for p, Initial residual = 0.0594515, Final residual = 0.002965, No Iterations 4
GAMG:  Solving for p, Initial residual = 0.0194152, Final residual = 0.000932952, No Iterations 8
time step continuity errors : sum local = 3.29878e-06, global = -5.6964e-07, cumulative = 4.26978e-05
smoothSolver:  Solving for epsilon, Initial residual = 0.0435443, Final residual = 0.000269893, No Iterations 1
smoothSolver:  Solving for k, Initial residual = 0.00402773, Final residual = 0.000397005, No Iterations 1
ExecutionTime = 44.5102 s  ClockTime = 45 s

Time = 44s

smoothSolver:  Solving for Ux, Initial residual = 0.00302694, Final residual = 0.000152625, No Iterations 2
smoothSolver:  Solving for Uy, Initial residual = 0.0471335, Final residual = 0.00280322, No Iterations 2
smoothSolver:  Solving for Uz, Initial residual = 0.0785317, Final residual = 0.00231933, No Iterations 2
GAMG:  Solving for p, Initial residual = 0.121137, Final residual = 0.00506987, No Iterations 7
GAMG:  Solving for p, Initial residual = 0.0526332, Final residual = 0.00254126, No Iterations 4
GAMG:  Solving for p, Initial residual = 0.0168673, Final residual = 0.00078884, No Iterations 8
time step continuity errors : sum local = 2.73037e-06, global = -3.78644e-07, cumulative = 4.23192e-05
smoothSolver:  Solving for epsilon, Initial residual = 0.0439633, Final residual = 0.000272938, No Iterations 1
smoothSolver:  Solving for k, Initial residual = 0.00387752, Final residual = 0.000383442, No Iterations 1
ExecutionTime = 45.187 s  ClockTime = 46 s

Time = 45s

smoothSolver:  Solving for Ux, Initial residual = 0.00286459, Final residual = 0.000149875, No Iterations 2
smoothSolver:  Solving for Uy, Initial residual = 0.0489565, Final residual = 0.00280115, No Iterations 2
smoothSolver:  Solving for Uz, Initial residual = 0.0788555, Final residual = 0.00229104, No Iterations 2
GAMG:  Solving for p, Initial residual = 0.114539, Final residual = 0.00524745, No Iterations 6
GAMG:  Solving for p, Initial residual = 0.0456159, Final residual = 0.00215814, No Iterations 5
GAMG:  Solving for p, Initial residual = 0.0155065, Final residual = 0.000703739, No Iterations 10
time step continuity errors : sum local = 2.33378e-06, global = -3.66566e-07, cumulative = 4.19526e-05
smoothSolver:  Solving for epsilon, Initial residual = 0.0444272, Final residual = 0.00027614, No Iterations 1
smoothSolver:  Solving for k, Initial residual = 0.00374537, Final residual = 0.000370137, No Iterations 1
ExecutionTime = 45.8999 s  ClockTime = 46 s

Time = 46s

smoothSolver:  Solving for Ux, Initial residual = 0.00276092, Final residual = 0.000146131, No Iterations 2
smoothSolver:  Solving for Uy, Initial residual = 0.0502823, Final residual = 0.00280777, No Iterations 2
smoothSolver:  Solving for Uz, Initial residual = 0.0774002, Final residual = 0.00232012, No Iterations 2
GAMG:  Solving for p, Initial residual = 0.11107, Final residual = 0.00441657, No Iterations 7
GAMG:  Solving for p, Initial residual = 0.0434174, Final residual = 0.00200786, No Iterations 6
GAMG:  Solving for p, Initial residual = 0.0160839, Final residual = 0.000711855, No Iterations 12
time step continuity errors : sum local = 2.24617e-06, global = 4.12119e-07, cumulative = 4.23647e-05
smoothSolver:  Solving for epsilon, Initial residual = 0.0447631, Final residual = 0.000278422, No Iterations 1
smoothSolver:  Solving for k, Initial residual = 0.00362676, Final residual = 0.000359403, No Iterations 1
bounding k, min: -0.0869161 max: 13.7654 average: 1.64194
ExecutionTime = 46.684 s  ClockTime = 47 s

Time = 47s

smoothSolver:  Solving for Ux, Initial residual = 0.00268398, Final residual = 0.000141, No Iterations 2
smoothSolver:  Solving for Uy, Initial residual = 0.0496601, Final residual = 0.00281011, No Iterations 2
smoothSolver:  Solving for Uz, Initial residual = 0.0729594, Final residual = 0.00231573, No Iterations 2
GAMG:  Solving for p, Initial residual = 0.109509, Final residual = 0.00506098, No Iterations 7
GAMG:  Solving for p, Initial residual = 0.0446191, Final residual = 0.00218008, No Iterations 6
GAMG:  Solving for p, Initial residual = 0.0165147, Final residual = 0.000797254, No Iterations 12
time step continuity errors : sum local = 2.43224e-06, global = 4.12506e-07, cumulative = 4.27772e-05
smoothSolver:  Solving for epsilon, Initial residual = 0.0451705, Final residual = 0.000281201, No Iterations 1
smoothSolver:  Solving for k, Initial residual = 0.00350038, Final residual = 0.000348489, No Iterations 1
ExecutionTime = 47.4639 s  ClockTime = 48 s

Time = 48s

smoothSolver:  Solving for Ux, Initial residual = 0.00260374, Final residual = 0.000135386, No Iterations 2
smoothSolver:  Solving for Uy, Initial residual = 0.0476291, Final residual = 0.00280089, No Iterations 2
smoothSolver:  Solving for Uz, Initial residual = 0.0699366, Final residual = 0.00228223, No Iterations 2
GAMG:  Solving for p, Initial residual = 0.1075, Final residual = 0.00491269, No Iterations 7
GAMG:  Solving for p, Initial residual = 0.0451132, Final residual = 0.00214226, No Iterations 6
GAMG:  Solving for p, Initial residual = 0.0165437, Final residual = 0.000738934, No Iterations 12
time step continuity errors : sum local = 2.22418e-06, global = 3.17964e-07, cumulative = 4.30952e-05
smoothSolver:  Solving for epsilon, Initial residual = 0.0455227, Final residual = 0.000284444, No Iterations 1
smoothSolver:  Solving for k, Initial residual = 0.00339721, Final residual = 0.000338686, No Iterations 1
ExecutionTime = 48.242 s  ClockTime = 49 s

Time = 49s

smoothSolver:  Solving for Ux, Initial residual = 0.00249758, Final residual = 0.000130087, No Iterations 2
smoothSolver:  Solving for Uy, Initial residual = 0.045761, Final residual = 0.00278409, No Iterations 2
smoothSolver:  Solving for Uz, Initial residual = 0.0687387, Final residual = 0.00222451, No Iterations 2
GAMG:  Solving for p, Initial residual = 0.103252, Final residual = 0.00508812, No Iterations 6
GAMG:  Solving for p, Initial residual = 0.0459755, Final residual = 0.00214505, No Iterations 5
GAMG:  Solving for p, Initial residual = 0.0163634, Final residual = 0.000729183, No Iterations 10
time step continuity errors : sum local = 2.17427e-06, global = 2.41617e-07, cumulative = 4.33368e-05
smoothSolver:  Solving for epsilon, Initial residual = 0.0459474, Final residual = 0.000287068, No Iterations 1
smoothSolver:  Solving for k, Initial residual = 0.00330469, Final residual = 0.000328912, No Iterations 1
ExecutionTime = 48.9531 s  ClockTime = 49 s

Time = 50s

smoothSolver:  Solving for Ux, Initial residual = 0.00235709, Final residual = 0.000125656, No Iterations 2
smoothSolver:  Solving for Uy, Initial residual = 0.0450662, Final residual = 0.00276511, No Iterations 2
smoothSolver:  Solving for Uz, Initial residual = 0.0669647, Final residual = 0.00215404, No Iterations 2
GAMG:  Solving for p, Initial residual = 0.0996778, Final residual = 0.00496615, No Iterations 6
GAMG:  Solving for p, Initial residual = 0.0460552, Final residual = 0.00222582, No Iterations 4
GAMG:  Solving for p, Initial residual = 0.0150999, Final residual = 0.000633659, No Iterations 10
time step continuity errors : sum local = 1.8716e-06, global = 1.92678e-07, cumulative = 4.35295e-05
smoothSolver:  Solving for epsilon, Initial residual = 0.0463905, Final residual = 0.000290431, No Iterations 1
smoothSolver:  Solving for k, Initial residual = 0.00322023, Final residual = 0.000321718, No Iterations 1
ExecutionTime = 49.6482 s  ClockTime = 50 s

Time = 51s

smoothSolver:  Solving for Ux, Initial residual = 0.00220786, Final residual = 0.000121743, No Iterations 2
smoothSolver:  Solving for Uy, Initial residual = 0.0446457, Final residual = 0.00274597, No Iterations 2
smoothSolver:  Solving for Uz, Initial residual = 0.0639203, Final residual = 0.00209854, No Iterations 2
GAMG:  Solving for p, Initial residual = 0.0969401, Final residual = 0.00473665, No Iterations 6
GAMG:  Solving for p, Initial residual = 0.0438189, Final residual = 0.00215397, No Iterations 4
GAMG:  Solving for p, Initial residual = 0.0144865, Final residual = 0.000609678, No Iterations 8
time step continuity errors : sum local = 1.75493e-06, global = 2.34397e-07, cumulative = 4.37639e-05
smoothSolver:  Solving for epsilon, Initial residual = 0.0468044, Final residual = 0.000293304, No Iterations 1
smoothSolver:  Solving for k, Initial residual = 0.00310645, Final residual = 4.22823e-05, No Iterations 2
bounding k, min: -0.187372 max: 12.932 average: 1.64099
ExecutionTime = 50.3205 s  ClockTime = 51 s

Time = 52s

smoothSolver:  Solving for Ux, Initial residual = 0.00208623, Final residual = 0.000118022, No Iterations 2
smoothSolver:  Solving for Uy, Initial residual = 0.0438432, Final residual = 0.00272299, No Iterations 2
smoothSolver:  Solving for Uz, Initial residual = 0.0625975, Final residual = 0.0020798, No Iterations 2
GAMG:  Solving for p, Initial residual = 0.0930697, Final residual = 0.00411785, No Iterations 6
GAMG:  Solving for p, Initial residual = 0.0413597, Final residual = 0.00179291, No Iterations 5
GAMG:  Solving for p, Initial residual = 0.0143439, Final residual = 0.000706882, No Iterations 9
time step continuity errors : sum local = 1.96654e-06, global = 3.61197e-07, cumulative = 4.41251e-05
smoothSolver:  Solving for epsilon, Initial residual = 0.0471921, Final residual = 0.000297413, No Iterations 1
smoothSolver:  Solving for k, Initial residual = 0.00298427, Final residual = 4.10869e-05, No Iterations 2
ExecutionTime = 51.0196 s  ClockTime = 51 s

Time = 53s

smoothSolver:  Solving for Ux, Initial residual = 0.00200134, Final residual = 0.000114024, No Iterations 2
smoothSolver:  Solving for Uy, Initial residual = 0.0430874, Final residual = 0.00270232, No Iterations 2
smoothSolver:  Solving for Uz, Initial residual = 0.0606507, Final residual = 0.00206437, No Iterations 2
GAMG:  Solving for p, Initial residual = 0.0876812, Final residual = 0.00390338, No Iterations 6
GAMG:  Solving for p, Initial residual = 0.0400798, Final residual = 0.00175282, No Iterations 6
GAMG:  Solving for p, Initial residual = 0.0149305, Final residual = 0.000653521, No Iterations 10
time step continuity errors : sum local = 1.75779e-06, global = 2.74477e-07, cumulative = 4.43996e-05
smoothSolver:  Solving for epsilon, Initial residual = 0.0475473, Final residual = 0.000299625, No Iterations 1
smoothSolver:  Solving for k, Initial residual = 0.00286977, Final residual = 3.91875e-05, No Iterations 2
ExecutionTime = 51.7524 s  ClockTime = 52 s

Time = 54s

smoothSolver:  Solving for Ux, Initial residual = 0.00194005, Final residual = 0.000109813, No Iterations 2
smoothSolver:  Solving for Uy, Initial residual = 0.0430413, Final residual = 0.00268973, No Iterations 2
smoothSolver:  Solving for Uz, Initial residual = 0.0575932, Final residual = 0.00202665, No Iterations 2
GAMG:  Solving for p, Initial residual = 0.083702, Final residual = 0.00349639, No Iterations 7
GAMG:  Solving for p, Initial residual = 0.0410188, Final residual = 0.00197118, No Iterations 5
GAMG:  Solving for p, Initial residual = 0.0147126, Final residual = 0.000651214, No Iterations 11
time step continuity errors : sum local = 1.69697e-06, global = 2.99089e-07, cumulative = 4.46986e-05
smoothSolver:  Solving for epsilon, Initial residual = 0.0478923, Final residual = 0.000300868, No Iterations 1
smoothSolver:  Solving for k, Initial residual = 0.0027674, Final residual = 3.78698e-05, No Iterations 2
ExecutionTime = 52.5035 s  ClockTime = 53 s

Time = 55s

smoothSolver:  Solving for Ux, Initial residual = 0.00187499, Final residual = 0.000105428, No Iterations 2
smoothSolver:  Solving for Uy, Initial residual = 0.0436377, Final residual = 0.00267897, No Iterations 2
smoothSolver:  Solving for Uz, Initial residual = 0.053496, Final residual = 0.00196884, No Iterations 2
GAMG:  Solving for p, Initial residual = 0.0817595, Final residual = 0.0036761, No Iterations 7
GAMG:  Solving for p, Initial residual = 0.0405852, Final residual = 0.00161906, No Iterations 6
GAMG:  Solving for p, Initial residual = 0.0144471, Final residual = 0.000672598, No Iterations 12
time step continuity errors : sum local = 1.71694e-06, global = 2.48001e-07, cumulative = 4.49466e-05
smoothSolver:  Solving for epsilon, Initial residual = 0.0482435, Final residual = 0.000302301, No Iterations 1
smoothSolver:  Solving for k, Initial residual = 0.00268782, Final residual = 3.65451e-05, No Iterations 2
bounding k, min: -2.22286e-05 max: 12.2031 average: 1.63838
ExecutionTime = 53.2946 s  ClockTime = 54 s

Time = 56s

smoothSolver:  Solving for Ux, Initial residual = 0.00179802, Final residual = 0.000101133, No Iterations 2
smoothSolver:  Solving for Uy, Initial residual = 0.0442101, Final residual = 0.0026626, No Iterations 2
smoothSolver:  Solving for Uz, Initial residual = 0.0512149, Final residual = 0.00191944, No Iterations 2
GAMG:  Solving for p, Initial residual = 0.0801177, Final residual = 0.00331454, No Iterations 7
GAMG:  Solving for p, Initial residual = 0.0394074, Final residual = 0.0019019, No Iterations 4
GAMG:  Solving for p, Initial residual = 0.0131476, Final residual = 0.000631475, No Iterations 14
time step continuity errors : sum local = 1.59731e-06, global = 2.48804e-07, cumulative = 4.51955e-05
smoothSolver:  Solving for epsilon, Initial residual = 0.0485726, Final residual = 0.000304486, No Iterations 1
smoothSolver:  Solving for k, Initial residual = 0.00262246, Final residual = 3.5482e-05, No Iterations 2
ExecutionTime = 54.0805 s  ClockTime = 55 s

Time = 57s

smoothSolver:  Solving for Ux, Initial residual = 0.00172598, Final residual = 9.71452e-05, No Iterations 2
smoothSolver:  Solving for Uy, Initial residual = 0.0439369, Final residual = 0.00263321, No Iterations 2
smoothSolver:  Solving for Uz, Initial residual = 0.050581, Final residual = 0.00189319, No Iterations 2
GAMG:  Solving for p, Initial residual = 0.07596, Final residual = 0.00332209, No Iterations 6
GAMG:  Solving for p, Initial residual = 0.0378249, Final residual = 0.0014619, No Iterations 5
GAMG:  Solving for p, Initial residual = 0.0135056, Final residual = 0.000582914, No Iterations 6
time step continuity errors : sum local = 1.44811e-06, global = 1.7209e-07, cumulative = 4.53675e-05
smoothSolver:  Solving for epsilon, Initial residual = 0.0489241, Final residual = 0.000306719, No Iterations 1
smoothSolver:  Solving for k, Initial residual = 0.00257236, Final residual = 3.44205e-05, No Iterations 2
ExecutionTime = 54.7287 s  ClockTime = 55 s

Time = 58s

smoothSolver:  Solving for Ux, Initial residual = 0.00167223, Final residual = 9.34629e-05, No Iterations 2
smoothSolver:  Solving for Uy, Initial residual = 0.0428331, Final residual = 0.00258768, No Iterations 2
smoothSolver:  Solving for Uz, Initial residual = 0.0495496, Final residual = 0.00187346, No Iterations 2
GAMG:  Solving for p, Initial residual = 0.0697458, Final residual = 0.00269239, No Iterations 7
GAMG:  Solving for p, Initial residual = 0.0355366, Final residual = 0.00166785, No Iterations 4
GAMG:  Solving for p, Initial residual = 0.0120582, Final residual = 0.000534293, No Iterations 11
time step continuity errors : sum local = 1.30676e-06, global = 2.38765e-07, cumulative = 4.56063e-05
smoothSolver:  Solving for epsilon, Initial residual = 0.0492714, Final residual = 0.000309781, No Iterations 1
smoothSolver:  Solving for k, Initial residual = 0.00252881, Final residual = 0.000252588, No Iterations 1
ExecutionTime = 55.4561 s  ClockTime = 56 s

Time = 59s

smoothSolver:  Solving for Ux, Initial residual = 0.0016408, Final residual = 9.01339e-05, No Iterations 2
smoothSolver:  Solving for Uy, Initial residual = 0.0415359, Final residual = 0.00253476, No Iterations 2
smoothSolver:  Solving for Uz, Initial residual = 0.047189, Final residual = 0.00182607, No Iterations 2
GAMG:  Solving for p, Initial residual = 0.0652308, Final residual = 0.00301293, No Iterations 7
GAMG:  Solving for p, Initial residual = 0.0349158, Final residual = 0.00170559, No Iterations 5
GAMG:  Solving for p, Initial residual = 0.0123062, Final residual = 0.000551596, No Iterations 10
time step continuity errors : sum local = 1.31698e-06, global = 2.2292e-07, cumulative = 4.58292e-05
smoothSolver:  Solving for epsilon, Initial residual = 0.0496326, Final residual = 0.000311804, No Iterations 1
smoothSolver:  Solving for k, Initial residual = 0.00249457, Final residual = 0.000247553, No Iterations 1
bounding k, min: -0.0992715 max: 11.4876 average: 1.6351
ExecutionTime = 56.1906 s  ClockTime = 57 s

Time = 60s

smoothSolver:  Solving for Ux, Initial residual = 0.00162213, Final residual = 8.68577e-05, No Iterations 2
smoothSolver:  Solving for Uy, Initial residual = 0.0406206, Final residual = 0.00248783, No Iterations 2
smoothSolver:  Solving for Uz, Initial residual = 0.0440595, Final residual = 0.0017612, No Iterations 2
GAMG:  Solving for p, Initial residual = 0.0626348, Final residual = 0.00281389, No Iterations 8
GAMG:  Solving for p, Initial residual = 0.0359657, Final residual = 0.00150419, No Iterations 5
GAMG:  Solving for p, Initial residual = 0.0125483, Final residual = 0.000603844, No Iterations 9
time step continuity errors : sum local = 1.40277e-06, global = 2.53474e-07, cumulative = 4.60827e-05
smoothSolver:  Solving for epsilon, Initial residual = 0.0499939, Final residual = 0.000314436, No Iterations 1
smoothSolver:  Solving for k, Initial residual = 0.00246264, Final residual = 0.000244428, No Iterations 1
ExecutionTime = 56.9171 s  ClockTime = 57 s

Time = 61s

smoothSolver:  Solving for Ux, Initial residual = 0.00160714, Final residual = 8.35489e-05, No Iterations 2
smoothSolver:  Solving for Uy, Initial residual = 0.0403038, Final residual = 0.00244815, No Iterations 2
smoothSolver:  Solving for Uz, Initial residual = 0.0420214, Final residual = 0.00170419, No Iterations 2
GAMG:  Solving for p, Initial residual = 0.0595345, Final residual = 0.0025545, No Iterations 8
GAMG:  Solving for p, Initial residual = 0.0361424, Final residual = 0.00175167, No Iterations 4
GAMG:  Solving for p, Initial residual = 0.0123375, Final residual = 0.000537174, No Iterations 12
time step continuity errors : sum local = 1.22375e-06, global = 1.86013e-07, cumulative = 4.62687e-05
smoothSolver:  Solving for epsilon, Initial residual = 0.0503416, Final residual = 0.000316649, No Iterations 1
smoothSolver:  Solving for k, Initial residual = 0.00242974, Final residual = 0.000240732, No Iterations 1
ExecutionTime = 57.6796 s  ClockTime = 58 s

Time = 62s

smoothSolver:  Solving for Ux, Initial residual = 0.00159017, Final residual = 8.0187e-05, No Iterations 2
smoothSolver:  Solving for Uy, Initial residual = 0.0400774, Final residual = 0.00241558, No Iterations 2
smoothSolver:  Solving for Uz, Initial residual = 0.0401789, Final residual = 0.00164979, No Iterations 2
GAMG:  Solving for p, Initial residual = 0.0550007, Final residual = 0.00266921, No Iterations 7
GAMG:  Solving for p, Initial residual = 0.0346294, Final residual = 0.00171609, No Iterations 4
GAMG:  Solving for p, Initial residual = 0.0117994, Final residual = 0.000578628, No Iterations 12
time step continuity errors : sum local = 1.29927e-06, global = 1.9331e-07, cumulative = 4.6462e-05
smoothSolver:  Solving for epsilon, Initial residual = 0.0506728, Final residual = 0.000319517, No Iterations 1
smoothSolver:  Solving for k, Initial residual = 0.00240402, Final residual = 0.00023611, No Iterations 1
ExecutionTime = 58.4239 s  ClockTime = 59 s

Time = 63s

smoothSolver:  Solving for Ux, Initial residual = 0.0015667, Final residual = 7.70253e-05, No Iterations 2
smoothSolver:  Solving for Uy, Initial residual = 0.0395131, Final residual = 0.00238257, No Iterations 2
smoothSolver:  Solving for Uz, Initial residual = 0.0381314, Final residual = 0.00158045, No Iterations 2
GAMG:  Solving for p, Initial residual = 0.0512105, Final residual = 0.00243438, No Iterations 8
GAMG:  Solving for p, Initial residual = 0.0333057, Final residual = 0.00131825, No Iterations 5
GAMG:  Solving for p, Initial residual = 0.0117376, Final residual = 0.000538877, No Iterations 10
time step continuity errors : sum local = 1.18892e-06, global = 1.64592e-07, cumulative = 4.66266e-05
smoothSolver:  Solving for epsilon, Initial residual = 0.0510705, Final residual = 0.000322131, No Iterations 1
smoothSolver:  Solving for k, Initial residual = 0.0023811, Final residual = 0.000232145, No Iterations 1
bounding k, min: -0.0672268 max: 11.1328 average: 1.63024
ExecutionTime = 59.1743 s  ClockTime = 60 s

Time = 64s

smoothSolver:  Solving for Ux, Initial residual = 0.0015424, Final residual = 7.41148e-05, No Iterations 2
smoothSolver:  Solving for Uy, Initial residual = 0.0386385, Final residual = 0.00234464, No Iterations 2
smoothSolver:  Solving for Uz, Initial residual = 0.035818, Final residual = 0.00151077, No Iterations 2
GAMG:  Solving for p, Initial residual = 0.0485368, Final residual = 0.00236888, No Iterations 7
GAMG:  Solving for p, Initial residual = 0.0302691, Final residual = 0.00148831, No Iterations 4
GAMG:  Solving for p, Initial residual = 0.01021, Final residual = 0.000456427, No Iterations 14
time step continuity errors : sum local = 1.00308e-06, global = 1.59038e-07, cumulative = 4.67857e-05
smoothSolver:  Solving for epsilon, Initial residual = 0.0514788, Final residual = 0.000325239, No Iterations 1
smoothSolver:  Solving for k, Initial residual = 0.00234843, Final residual = 0.000227389, No Iterations 1
ExecutionTime = 59.9533 s  ClockTime = 60 s

Time = 65s

smoothSolver:  Solving for Ux, Initial residual = 0.00151688, Final residual = 7.14621e-05, No Iterations 2
smoothSolver:  Solving for Uy, Initial residual = 0.0376379, Final residual = 0.00229817, No Iterations 2
smoothSolver:  Solving for Uz, Initial residual = 0.0336396, Final residual = 0.00144503, No Iterations 2
GAMG:  Solving for p, Initial residual = 0.0462411, Final residual = 0.00228227, No Iterations 6
GAMG:  Solving for p, Initial residual = 0.0280734, Final residual = 0.00117982, No Iterations 5
GAMG:  Solving for p, Initial residual = 0.00978172, Final residual = 0.000442528, No Iterations 10
time step continuity errors : sum local = 9.61024e-07, global = 1.33999e-07, cumulative = 4.69197e-05
smoothSolver:  Solving for epsilon, Initial residual = 0.0518862, Final residual = 0.000328044, No Iterations 1
smoothSolver:  Solving for k, Initial residual = 0.00229794, Final residual = 0.00022157, No Iterations 1
ExecutionTime = 60.6634 s  ClockTime = 61 s

Time = 66s

smoothSolver:  Solving for Ux, Initial residual = 0.00148779, Final residual = 6.90591e-05, No Iterations 2
smoothSolver:  Solving for Uy, Initial residual = 0.0367149, Final residual = 0.00225086, No Iterations 2
smoothSolver:  Solving for Uz, Initial residual = 0.0321074, Final residual = 0.00138373, No Iterations 2
GAMG:  Solving for p, Initial residual = 0.042275, Final residual = 0.0019322, No Iterations 7
GAMG:  Solving for p, Initial residual = 0.0273844, Final residual = 0.00122405, No Iterations 4
GAMG:  Solving for p, Initial residual = 0.009113, Final residual = 0.000434001, No Iterations 9
time step continuity errors : sum local = 9.33162e-07, global = 1.67855e-07, cumulative = 4.70875e-05
smoothSolver:  Solving for epsilon, Initial residual = 0.0523299, Final residual = 0.000331512, No Iterations 1
smoothSolver:  Solving for k, Initial residual = 0.00223482, Final residual = 0.000214727, No Iterations 1
ExecutionTime = 61.357 s  ClockTime = 62 s

Time = 67s

smoothSolver:  Solving for Ux, Initial residual = 0.00145516, Final residual = 6.67443e-05, No Iterations 2
smoothSolver:  Solving for Uy, Initial residual = 0.035995, Final residual = 0.00220509, No Iterations 2
smoothSolver:  Solving for Uz, Initial residual = 0.0306294, Final residual = 0.00132395, No Iterations 2
GAMG:  Solving for p, Initial residual = 0.0384569, Final residual = 0.00182586, No Iterations 8
GAMG:  Solving for p, Initial residual = 0.0276145, Final residual = 0.00113907, No Iterations 4
GAMG:  Solving for p, Initial residual = 0.00894741, Final residual = 0.000427064, No Iterations 8
time step continuity errors : sum local = 9.0719e-07, global = 1.22391e-07, cumulative = 4.72099e-05
smoothSolver:  Solving for epsilon, Initial residual = 0.0527747, Final residual = 0.000334453, No Iterations 1
smoothSolver:  Solving for k, Initial residual = 0.00216819, Final residual = 0.000207221, No Iterations 1
bounding k, min: -0.00811403 max: 11.0168 average: 1.62346
ExecutionTime = 62.0563 s  ClockTime = 63 s

Time = 68s

smoothSolver:  Solving for Ux, Initial residual = 0.00141819, Final residual = 6.44332e-05, No Iterations 2
smoothSolver:  Solving for Uy, Initial residual = 0.0353238, Final residual = 0.00216391, No Iterations 2
smoothSolver:  Solving for Uz, Initial residual = 0.0288734, Final residual = 0.00126666, No Iterations 2
GAMG:  Solving for p, Initial residual = 0.0358488, Final residual = 0.00170511, No Iterations 8
GAMG:  Solving for p, Initial residual = 0.0271075, Final residual = 0.0011158, No Iterations 4
GAMG:  Solving for p, Initial residual = 0.00886422, Final residual = 0.000379315, No Iterations 10
time step continuity errors : sum local = 7.92661e-07, global = 1.01557e-07, cumulative = 4.73115e-05
smoothSolver:  Solving for epsilon, Initial residual = 0.0532432, Final residual = 0.00033743, No Iterations 1
smoothSolver:  Solving for k, Initial residual = 0.00210677, Final residual = 0.00019937, No Iterations 1
ExecutionTime = 62.7874 s  ClockTime = 63 s

Time = 69s

smoothSolver:  Solving for Ux, Initial residual = 0.00138052, Final residual = 6.21554e-05, No Iterations 2
smoothSolver:  Solving for Uy, Initial residual = 0.0346177, Final residual = 0.00212465, No Iterations 2
smoothSolver:  Solving for Uz, Initial residual = 0.0270847, Final residual = 0.00121479, No Iterations 2
GAMG:  Solving for p, Initial residual = 0.0343477, Final residual = 0.00152444, No Iterations 8
GAMG:  Solving for p, Initial residual = 0.0263379, Final residual = 0.00131576, No Iterations 3
GAMG:  Solving for p, Initial residual = 0.00862796, Final residual = 0.000399881, No Iterations 9
time step continuity errors : sum local = 8.24056e-07, global = 1.20532e-07, cumulative = 4.7432e-05
smoothSolver:  Solving for epsilon, Initial residual = 0.0537003, Final residual = 0.00033947, No Iterations 1
smoothSolver:  Solving for k, Initial residual = 0.0020434, Final residual = 0.000191357, No Iterations 1
ExecutionTime = 63.4815 s  ClockTime = 64 s

Time = 70s

smoothSolver:  Solving for Ux, Initial residual = 0.00133987, Final residual = 5.99496e-05, No Iterations 2
smoothSolver:  Solving for Uy, Initial residual = 0.0337865, Final residual = 0.00208155, No Iterations 2
smoothSolver:  Solving for Uz, Initial residual = 0.0258778, Final residual = 0.00116709, No Iterations 2
GAMG:  Solving for p, Initial residual = 0.032205, Final residual = 0.00159886, No Iterations 7
GAMG:  Solving for p, Initial residual = 0.0249962, Final residual = 0.000988498, No Iterations 4
GAMG:  Solving for p, Initial residual = 0.00824626, Final residual = 0.000357963, No Iterations 10
time step continuity errors : sum local = 7.31316e-07, global = 8.64041e-08, cumulative = 4.75184e-05
smoothSolver:  Solving for epsilon, Initial residual = 0.0541926, Final residual = 0.000343089, No Iterations 1
smoothSolver:  Solving for k, Initial residual = 0.00197012, Final residual = 0.00018351, No Iterations 1
ExecutionTime = 64.1928 s  ClockTime = 65 s

Time = 71s

smoothSolver:  Solving for Ux, Initial residual = 0.00129422, Final residual = 5.78874e-05, No Iterations 2
smoothSolver:  Solving for Uy, Initial residual = 0.0329614, Final residual = 0.00203287, No Iterations 2
smoothSolver:  Solving for Uz, Initial residual = 0.0246939, Final residual = 0.00112125, No Iterations 2
GAMG:  Solving for p, Initial residual = 0.0294412, Final residual = 0.00142141, No Iterations 8
GAMG:  Solving for p, Initial residual = 0.0241155, Final residual = 0.0011363, No Iterations 3
GAMG:  Solving for p, Initial residual = 0.00797851, Final residual = 0.000374014, No Iterations 8
time step continuity errors : sum local = 7.57629e-07, global = 8.97645e-08, cumulative = 4.76082e-05
smoothSolver:  Solving for epsilon, Initial residual = 0.0546631, Final residual = 0.000346031, No Iterations 1
smoothSolver:  Solving for k, Initial residual = 0.00188968, Final residual = 0.000174704, No Iterations 1
ExecutionTime = 64.8692 s  ClockTime = 65 s

Time = 72s

smoothSolver:  Solving for Ux, Initial residual = 0.00124219, Final residual = 5.59644e-05, No Iterations 2
smoothSolver:  Solving for Uy, Initial residual = 0.0321691, Final residual = 0.00197851, No Iterations 2
smoothSolver:  Solving for Uz, Initial residual = 0.0234348, Final residual = 0.00108358, No Iterations 2
GAMG:  Solving for p, Initial residual = 0.0272684, Final residual = 0.00128261, No Iterations 8
GAMG:  Solving for p, Initial residual = 0.0229762, Final residual = 0.00105589, No Iterations 3
GAMG:  Solving for p, Initial residual = 0.00750847, Final residual = 0.000340138, No Iterations 8
time step continuity errors : sum local = 6.8318e-07, global = 7.82027e-08, cumulative = 4.76864e-05
smoothSolver:  Solving for epsilon, Initial residual = 0.0551292, Final residual = 0.000348395, No Iterations 1
smoothSolver:  Solving for k, Initial residual = 0.00180377, Final residual = 0.000165899, No Iterations 1
bounding k, min: -0.105087 max: 10.8865 average: 1.61454
ExecutionTime = 65.5509 s  ClockTime = 66 s

Time = 73s

smoothSolver:  Solving for Ux, Initial residual = 0.0011866, Final residual = 5.41341e-05, No Iterations 2
smoothSolver:  Solving for Uy, Initial residual = 0.0314549, Final residual = 0.00192287, No Iterations 2
smoothSolver:  Solving for Uz, Initial residual = 0.0221821, Final residual = 0.00105037, No Iterations 2
GAMG:  Solving for p, Initial residual = 0.0258698, Final residual = 0.00115116, No Iterations 8
GAMG:  Solving for p, Initial residual = 0.0221589, Final residual = 0.000962678, No Iterations 3
GAMG:  Solving for p, Initial residual = 0.00708474, Final residual = 0.000351239, No Iterations 6
time step continuity errors : sum local = 6.99393e-07, global = 8.86054e-08, cumulative = 4.7775e-05
smoothSolver:  Solving for epsilon, Initial residual = 0.0555665, Final residual = 0.000350541, No Iterations 1
smoothSolver:  Solving for k, Initial residual = 0.00172215, Final residual = 0.000157519, No Iterations 1
ExecutionTime = 66.1917 s  ClockTime = 67 s

Time = 74s

smoothSolver:  Solving for Ux, Initial residual = 0.00112805, Final residual = 5.23617e-05, No Iterations 2
smoothSolver:  Solving for Uy, Initial residual = 0.0308105, Final residual = 0.00186685, No Iterations 2
smoothSolver:  Solving for Uz, Initial residual = 0.0211787, Final residual = 0.00101609, No Iterations 2
GAMG:  Solving for p, Initial residual = 0.0243544, Final residual = 0.00111408, No Iterations 8
GAMG:  Solving for p, Initial residual = 0.021401, Final residual = 0.00100335, No Iterations 3
GAMG:  Solving for p, Initial residual = 0.0068678, Final residual = 0.000297778, No Iterations 7
time step continuity errors : sum local = 5.87644e-07, global = 7.68652e-08, cumulative = 4.78518e-05
smoothSolver:  Solving for epsilon, Initial residual = 0.0559111, Final residual = 0.000352419, No Iterations 1
smoothSolver:  Solving for k, Initial residual = 0.00163168, Final residual = 0.000149832, No Iterations 1
ExecutionTime = 66.8492 s  ClockTime = 67 s

Time = 75s

smoothSolver:  Solving for Ux, Initial residual = 0.00107123, Final residual = 5.06548e-05, No Iterations 2
smoothSolver:  Solving for Uy, Initial residual = 0.0303016, Final residual = 0.00181509, No Iterations 2
smoothSolver:  Solving for Uz, Initial residual = 0.0206385, Final residual = 0.000986428, No Iterations 2
GAMG:  Solving for p, Initial residual = 0.0226549, Final residual = 0.00109726, No Iterations 8
GAMG:  Solving for p, Initial residual = 0.0205115, Final residual = 0.00099159, No Iterations 3
GAMG:  Solving for p, Initial residual = 0.00661945, Final residual = 0.000296308, No Iterations 7
time step continuity errors : sum local = 5.79633e-07, global = 7.59472e-08, cumulative = 4.79278e-05
smoothSolver:  Solving for epsilon, Initial residual = 0.0563249, Final residual = 0.000354177, No Iterations 1
smoothSolver:  Solving for k, Initial residual = 0.00154141, Final residual = 0.000141772, No Iterations 1
ExecutionTime = 67.5097 s  ClockTime = 68 s

Time = 76s

smoothSolver:  Solving for Ux, Initial residual = 0.00101476, Final residual = 4.90284e-05, No Iterations 2
smoothSolver:  Solving for Uy, Initial residual = 0.0299204, Final residual = 0.00176685, No Iterations 2
smoothSolver:  Solving for Uz, Initial residual = 0.0200975, Final residual = 0.000960916, No Iterations 2
GAMG:  Solving for p, Initial residual = 0.0212534, Final residual = 0.00105842, No Iterations 8
GAMG:  Solving for p, Initial residual = 0.0197618, Final residual = 0.000963527, No Iterations 3
GAMG:  Solving for p, Initial residual = 0.00643349, Final residual = 0.000296191, No Iterations 7
time step continuity errors : sum local = 5.74607e-07, global = 7.75377e-08, cumulative = 4.80053e-05
smoothSolver:  Solving for epsilon, Initial residual = 0.0566715, Final residual = 0.000355735, No Iterations 1
smoothSolver:  Solving for k, Initial residual = 0.00145208, Final residual = 0.000133695, No Iterations 1
ExecutionTime = 68.1692 s  ClockTime = 69 s

Time = 77s

smoothSolver:  Solving for Ux, Initial residual = 0.000959489, Final residual = 4.74855e-05, No Iterations 2
smoothSolver:  Solving for Uy, Initial residual = 0.0296338, Final residual = 0.00172298, No Iterations 2
smoothSolver:  Solving for Uz, Initial residual = 0.0193987, Final residual = 0.000937008, No Iterations 2
GAMG:  Solving for p, Initial residual = 0.0202788, Final residual = 0.00101389, No Iterations 8
GAMG:  Solving for p, Initial residual = 0.0193183, Final residual = 0.000938731, No Iterations 3
GAMG:  Solving for p, Initial residual = 0.00631256, Final residual = 0.00029369, No Iterations 7
time step continuity errors : sum local = 5.6594e-07, global = 7.81755e-08, cumulative = 4.80835e-05
smoothSolver:  Solving for epsilon, Initial residual = 0.0569863, Final residual = 0.000357015, No Iterations 1
smoothSolver:  Solving for k, Initial residual = 0.00136967, Final residual = 0.000126749, No Iterations 1
bounding k, min: -0.0213665 max: 10.7758 average: 1.60582
ExecutionTime = 68.8325 s  ClockTime = 69 s

Time = 78s

smoothSolver:  Solving for Ux, Initial residual = 0.000906536, Final residual = 4.60146e-05, No Iterations 2
smoothSolver:  Solving for Uy, Initial residual = 0.0294103, Final residual = 0.00168286, No Iterations 2
smoothSolver:  Solving for Uz, Initial residual = 0.0187343, Final residual = 0.000914437, No Iterations 2
GAMG:  Solving for p, Initial residual = 0.0192861, Final residual = 0.000959208, No Iterations 8
GAMG:  Solving for p, Initial residual = 0.0192135, Final residual = 0.000897466, No Iterations 3
GAMG:  Solving for p, Initial residual = 0.00626002, Final residual = 0.000262199, No Iterations 7
time step continuity errors : sum local = 5.02696e-07, global = 6.85793e-08, cumulative = 4.81521e-05
smoothSolver:  Solving for epsilon, Initial residual = 0.0573594, Final residual = 0.000359232, No Iterations 1
smoothSolver:  Solving for k, Initial residual = 0.00129814, Final residual = 0.00012035, No Iterations 1
ExecutionTime = 69.4897 s  ClockTime = 70 s

Time = 79s

smoothSolver:  Solving for Ux, Initial residual = 0.000856584, Final residual = 4.46017e-05, No Iterations 2
[...]
smoothSolver:  Solving for k, Initial residual = 1.20655e-06, Final residual = 1.09342e-07, No Iterations 1
bounding k, min: -0.0148765 max: 10.1917 average: 1.57746
ExecutionTime = 571.87 s  ClockTime = 578 s

Time = 982s

smoothSolver:  Solving for Ux, Initial residual = 5.38611e-07, Final residual = 5.39106e-08, No Iterations 1
smoothSolver:  Solving for Uy, Initial residual = 1.70542e-05, Final residual = 7.93525e-07, No Iterations 2
smoothSolver:  Solving for Uz, Initial residual = 3.32866e-05, Final residual = 9.5933e-07, No Iterations 2
GAMG:  Solving for p, Initial residual = 4.42209e-05, Final residual = 2.15227e-06, No Iterations 4
GAMG:  Solving for p, Initial residual = 2.13957e-05, Final residual = 9.15595e-07, No Iterations 4
GAMG:  Solving for p, Initial residual = 9.0148e-06, Final residual = 6.81542e-07, No Iterations 2
time step continuity errors : sum local = 1.27154e-09, global = 2.99791e-12, cumulative = 4.74323e-05
smoothSolver:  Solving for epsilon, Initial residual = 0.0619718, Final residual = 0.000377692, No Iterations 1
smoothSolver:  Solving for k, Initial residual = 1.16799e-06, Final residual = 1.99113e-08, No Iterations 2
ExecutionTime = 572.388 s  ClockTime = 578 s

Time = 983s

smoothSolver:  Solving for Ux, Initial residual = 5.8392e-07, Final residual = 7.2757e-08, No Iterations 1
smoothSolver:  Solving for Uy, Initial residual = 1.72237e-05, Final residual = 8.50889e-07, No Iterations 2
smoothSolver:  Solving for Uz, Initial residual = 3.15937e-05, Final residual = 9.60149e-07, No Iterations 2
GAMG:  Solving for p, Initial residual = 5.23701e-05, Final residual = 2.18061e-06, No Iterations 5
GAMG:  Solving for p, Initial residual = 2.4665e-05, Final residual = 1.18922e-06, No Iterations 3
GAMG:  Solving for p, Initial residual = 7.03597e-06, Final residual = 7.37121e-07, No Iterations 2
time step continuity errors : sum local = 1.3753e-09, global = 3.62952e-12, cumulative = 4.74323e-05
smoothSolver:  Solving for epsilon, Initial residual = 0.0619659, Final residual = 0.000377653, No Iterations 1
smoothSolver:  Solving for k, Initial residual = 1.20125e-06, Final residual = 1.95914e-08, No Iterations 2
bounding k, min: -0.231675 max: 10.1917 average: 1.57746
ExecutionTime = 572.913 s  ClockTime = 579 s

Time = 984s

smoothSolver:  Solving for Ux, Initial residual = 9.6425e-07, Final residual = 9.28109e-08, No Iterations 1
smoothSolver:  Solving for Uy, Initial residual = 2.1268e-05, Final residual = 9.22686e-07, No Iterations 2
smoothSolver:  Solving for Uz, Initial residual = 3.68576e-05, Final residual = 1.07849e-06, No Iterations 2
GAMG:  Solving for p, Initial residual = 6.11797e-05, Final residual = 2.73828e-06, No Iterations 5
GAMG:  Solving for p, Initial residual = 3.39514e-05, Final residual = 1.68374e-06, No Iterations 3
GAMG:  Solving for p, Initial residual = 1.07465e-05, Final residual = 8.2001e-07, No Iterations 3
time step continuity errors : sum local = 1.52987e-09, global = 1.72993e-12, cumulative = 4.74323e-05
smoothSolver:  Solving for epsilon, Initial residual = 0.0619724, Final residual = 0.000377696, No Iterations 1
smoothSolver:  Solving for k, Initial residual = 1.1994e-06, Final residual = 2.05229e-08, No Iterations 2
ExecutionTime = 573.448 s  ClockTime = 579 s

Time = 985s

smoothSolver:  Solving for Ux, Initial residual = 6.38186e-07, Final residual = 6.62544e-08, No Iterations 1
smoothSolver:  Solving for Uy, Initial residual = 1.86155e-05, Final residual = 8.32672e-07, No Iterations 2
smoothSolver:  Solving for Uz, Initial residual = 3.71049e-05, Final residual = 1.02288e-06, No Iterations 2
GAMG:  Solving for p, Initial residual = 4.99505e-05, Final residual = 2.03423e-06, No Iterations 5
GAMG:  Solving for p, Initial residual = 2.69008e-05, Final residual = 1.16414e-06, No Iterations 4
GAMG:  Solving for p, Initial residual = 1.04628e-05, Final residual = 8.48076e-07, No Iterations 2
time step continuity errors : sum local = 1.58227e-09, global = 8.60206e-13, cumulative = 4.74323e-05
smoothSolver:  Solving for epsilon, Initial residual = 0.0619651, Final residual = 0.000377664, No Iterations 1
smoothSolver:  Solving for k, Initial residual = 1.12706e-06, Final residual = 1.07841e-07, No Iterations 1
bounding k, min: -0.0844596 max: 10.1917 average: 1.57746
ExecutionTime = 573.985 s  ClockTime = 580 s

Time = 986s

smoothSolver:  Solving for Ux, Initial residual = 7.2839e-07, Final residual = 7.51367e-08, No Iterations 1
smoothSolver:  Solving for Uy, Initial residual = 1.82128e-05, Final residual = 8.73141e-07, No Iterations 2
smoothSolver:  Solving for Uz, Initial residual = 4.32789e-05, Final residual = 1.2987e-06, No Iterations 2
GAMG:  Solving for p, Initial residual = 5.7391e-05, Final residual = 2.215e-06, No Iterations 4
GAMG:  Solving for p, Initial residual = 2.42172e-05, Final residual = 9.85871e-07, No Iterations 4
GAMG:  Solving for p, Initial residual = 8.6858e-06, Final residual = 7.00143e-07, No Iterations 2
time step continuity errors : sum local = 1.30626e-09, global = -3.64238e-12, cumulative = 4.74323e-05
smoothSolver:  Solving for epsilon, Initial residual = 0.0619718, Final residual = 0.000377701, No Iterations 1
smoothSolver:  Solving for k, Initial residual = 1.20591e-06, Final residual = 2.16457e-08, No Iterations 2
ExecutionTime = 574.503 s  ClockTime = 580 s

Time = 987s

smoothSolver:  Solving for Ux, Initial residual = 5.81476e-07, Final residual = 7.60193e-08, No Iterations 1
smoothSolver:  Solving for Uy, Initial residual = 1.70776e-05, Final residual = 8.46751e-07, No Iterations 2
smoothSolver:  Solving for Uz, Initial residual = 3.18364e-05, Final residual = 9.02321e-07, No Iterations 2
GAMG:  Solving for p, Initial residual = 5.22996e-05, Final residual = 2.50689e-06, No Iterations 5
GAMG:  Solving for p, Initial residual = 2.81917e-05, Final residual = 1.09872e-06, No Iterations 4
GAMG:  Solving for p, Initial residual = 9.16539e-06, Final residual = 7.91198e-07, No Iterations 2
time step continuity errors : sum local = 1.47621e-09, global = -8.36507e-12, cumulative = 4.74323e-05
smoothSolver:  Solving for epsilon, Initial residual = 0.0619655, Final residual = 0.000377651, No Iterations 1
smoothSolver:  Solving for k, Initial residual = 1.22671e-06, Final residual = 1.20009e-07, No Iterations 1
bounding k, min: -0.234195 max: 10.1917 average: 1.57746
ExecutionTime = 575.039 s  ClockTime = 581 s

Time = 988s

smoothSolver:  Solving for Ux, Initial residual = 9.99163e-07, Final residual = 9.34631e-08, No Iterations 1
smoothSolver:  Solving for Uy, Initial residual = 2.14209e-05, Final residual = 9.06946e-07, No Iterations 2
smoothSolver:  Solving for Uz, Initial residual = 4.06394e-05, Final residual = 1.18406e-06, No Iterations 2
GAMG:  Solving for p, Initial residual = 5.57564e-05, Final residual = 2.52981e-06, No Iterations 5
GAMG:  Solving for p, Initial residual = 3.17258e-05, Final residual = 1.57618e-06, No Iterations 3
GAMG:  Solving for p, Initial residual = 1.07482e-05, Final residual = 7.71929e-07, No Iterations 3
time step continuity errors : sum local = 1.44018e-09, global = -6.70105e-12, cumulative = 4.74323e-05
smoothSolver:  Solving for epsilon, Initial residual = 0.0619719, Final residual = 0.000377709, No Iterations 1
smoothSolver:  Solving for k, Initial residual = 1.33208e-06, Final residual = 2.39352e-08, No Iterations 2
ExecutionTime = 575.574 s  ClockTime = 581 s

Time = 989s

smoothSolver:  Solving for Ux, Initial residual = 6.57915e-07, Final residual = 6.52535e-08, No Iterations 1
smoothSolver:  Solving for Uy, Initial residual = 1.90197e-05, Final residual = 8.72999e-07, No Iterations 2
smoothSolver:  Solving for Uz, Initial residual = 3.72219e-05, Final residual = 1.04771e-06, No Iterations 2
GAMG:  Solving for p, Initial residual = 4.93537e-05, Final residual = 2.36012e-06, No Iterations 4
GAMG:  Solving for p, Initial residual = 2.4605e-05, Final residual = 1.08301e-06, No Iterations 4
GAMG:  Solving for p, Initial residual = 9.41463e-06, Final residual = 7.53395e-07, No Iterations 2
time step continuity errors : sum local = 1.40563e-09, global = -5.97807e-12, cumulative = 4.74323e-05
smoothSolver:  Solving for epsilon, Initial residual = 0.0619659, Final residual = 0.000377685, No Iterations 1
smoothSolver:  Solving for k, Initial residual = 1.18216e-06, Final residual = 1.13261e-07, No Iterations 1
bounding k, min: -0.0177006 max: 10.1917 average: 1.57746
ExecutionTime = 576.095 s  ClockTime = 582 s

Time = 990s

smoothSolver:  Solving for Ux, Initial residual = 5.09343e-07, Final residual = 5.38842e-08, No Iterations 1
smoothSolver:  Solving for Uy, Initial residual = 1.67344e-05, Final residual = 8.05016e-07, No Iterations 2
smoothSolver:  Solving for Uz, Initial residual = 3.10928e-05, Final residual = 8.78453e-07, No Iterations 2
GAMG:  Solving for p, Initial residual = 4.84017e-05, Final residual = 2.29018e-06, No Iterations 4
GAMG:  Solving for p, Initial residual = 2.15393e-05, Final residual = 9.49714e-07, No Iterations 4
GAMG:  Solving for p, Initial residual = 8.28822e-06, Final residual = 6.74384e-07, No Iterations 2
time step continuity errors : sum local = 1.25818e-09, global = -2.91675e-12, cumulative = 4.74323e-05
smoothSolver:  Solving for epsilon, Initial residual = 0.0619721, Final residual = 0.000377723, No Iterations 1
smoothSolver:  Solving for k, Initial residual = 1.12711e-06, Final residual = 1.82237e-08, No Iterations 2
ExecutionTime = 576.617 s  ClockTime = 582 s

Time = 991s

smoothSolver:  Solving for Ux, Initial residual = 5.68553e-07, Final residual = 7.28401e-08, No Iterations 1
smoothSolver:  Solving for Uy, Initial residual = 1.67694e-05, Final residual = 7.87055e-07, No Iterations 2
smoothSolver:  Solving for Uz, Initial residual = 2.96762e-05, Final residual = 8.65615e-07, No Iterations 2
GAMG:  Solving for p, Initial residual = 5.37325e-05, Final residual = 2.43764e-06, No Iterations 5
GAMG:  Solving for p, Initial residual = 2.77904e-05, Final residual = 1.02263e-06, No Iterations 4
GAMG:  Solving for p, Initial residual = 9.11989e-06, Final residual = 7.55422e-07, No Iterations 2
time step continuity errors : sum local = 1.40944e-09, global = -1.513e-12, cumulative = 4.74323e-05
smoothSolver:  Solving for epsilon, Initial residual = 0.0619666, Final residual = 0.000377686, No Iterations 1
smoothSolver:  Solving for k, Initial residual = 1.20992e-06, Final residual = 1.90524e-08, No Iterations 2
bounding k, min: -0.232244 max: 10.1917 average: 1.57745
ExecutionTime = 577.171 s  ClockTime = 583 s

Time = 992s

smoothSolver:  Solving for Ux, Initial residual = 1.16372e-06, Final residual = 1.13421e-07, No Iterations 1
smoothSolver:  Solving for Uy, Initial residual = 2.26627e-05, Final residual = 9.66063e-07, No Iterations 2
smoothSolver:  Solving for Uz, Initial residual = 5.01529e-05, Final residual = 1.4866e-06, No Iterations 2
GAMG:  Solving for p, Initial residual = 6.89563e-05, Final residual = 2.57179e-06, No Iterations 5
GAMG:  Solving for p, Initial residual = 3.4619e-05, Final residual = 1.7142e-06, No Iterations 3
GAMG:  Solving for p, Initial residual = 1.06913e-05, Final residual = 7.85639e-07, No Iterations 3
time step continuity errors : sum local = 1.46577e-09, global = -4.31993e-12, cumulative = 4.74323e-05
smoothSolver:  Solving for epsilon, Initial residual = 0.0619728, Final residual = 0.000377717, No Iterations 1
smoothSolver:  Solving for k, Initial residual = 1.33398e-06, Final residual = 2.46764e-08, No Iterations 2
ExecutionTime = 577.708 s  ClockTime = 583 s

Time = 993s

smoothSolver:  Solving for Ux, Initial residual = 6.74265e-07, Final residual = 6.79192e-08, No Iterations 1
smoothSolver:  Solving for Uy, Initial residual = 1.91309e-05, Final residual = 8.97907e-07, No Iterations 2
smoothSolver:  Solving for Uz, Initial residual = 3.91228e-05, Final residual = 1.07421e-06, No Iterations 2
GAMG:  Solving for p, Initial residual = 4.82268e-05, Final residual = 2.01961e-06, No Iterations 5
GAMG:  Solving for p, Initial residual = 2.66801e-05, Final residual = 1.14268e-06, No Iterations 4
GAMG:  Solving for p, Initial residual = 9.92703e-06, Final residual = 8.16741e-07, No Iterations 2
time step continuity errors : sum local = 1.52384e-09, global = -2.63663e-12, cumulative = 4.74323e-05
smoothSolver:  Solving for epsilon, Initial residual = 0.0619654, Final residual = 0.000377683, No Iterations 1
smoothSolver:  Solving for k, Initial residual = 1.19372e-06, Final residual = 1.08157e-07, No Iterations 1
bounding k, min: -0.0150834 max: 10.1917 average: 1.57746
ExecutionTime = 578.247 s  ClockTime = 584 s

Time = 994s

smoothSolver:  Solving for Ux, Initial residual = 5.34506e-07, Final residual = 5.28797e-08, No Iterations 1
smoothSolver:  Solving for Uy, Initial residual = 1.7073e-05, Final residual = 7.81076e-07, No Iterations 2
smoothSolver:  Solving for Uz, Initial residual = 3.29631e-05, Final residual = 9.85231e-07, No Iterations 2
GAMG:  Solving for p, Initial residual = 4.41486e-05, Final residual = 2.17668e-06, No Iterations 4
GAMG:  Solving for p, Initial residual = 2.12612e-05, Final residual = 9.33917e-07, No Iterations 4
GAMG:  Solving for p, Initial residual = 8.94419e-06, Final residual = 6.93233e-07, No Iterations 2
time step continuity errors : sum local = 1.29335e-09, global = -4.90438e-12, cumulative = 4.74323e-05
smoothSolver:  Solving for epsilon, Initial residual = 0.0619718, Final residual = 0.000377714, No Iterations 1
smoothSolver:  Solving for k, Initial residual = 1.14808e-06, Final residual = 1.94947e-08, No Iterations 2
ExecutionTime = 578.766 s  ClockTime = 584 s

Time = 995s

smoothSolver:  Solving for Ux, Initial residual = 5.76436e-07, Final residual = 7.21789e-08, No Iterations 1
smoothSolver:  Solving for Uy, Initial residual = 1.718e-05, Final residual = 8.30133e-07, No Iterations 2
smoothSolver:  Solving for Uz, Initial residual = 3.18642e-05, Final residual = 9.88917e-07, No Iterations 2
GAMG:  Solving for p, Initial residual = 5.24265e-05, Final residual = 2.19326e-06, No Iterations 5
GAMG:  Solving for p, Initial residual = 2.48202e-05, Final residual = 1.23172e-06, No Iterations 3
GAMG:  Solving for p, Initial residual = 7.24413e-06, Final residual = 7.71893e-07, No Iterations 2
time step continuity errors : sum local = 1.44018e-09, global = -2.64001e-12, cumulative = 4.74323e-05
smoothSolver:  Solving for epsilon, Initial residual = 0.061966, Final residual = 0.000377672, No Iterations 1
smoothSolver:  Solving for k, Initial residual = 1.18301e-06, Final residual = 1.93067e-08, No Iterations 2
bounding k, min: -0.231833 max: 10.1917 average: 1.57746
ExecutionTime = 579.29 s  ClockTime = 585 s

Time = 996s

smoothSolver:  Solving for Ux, Initial residual = 9.70919e-07, Final residual = 9.23499e-08, No Iterations 1
smoothSolver:  Solving for Uy, Initial residual = 2.12022e-05, Final residual = 9.25631e-07, No Iterations 2
smoothSolver:  Solving for Uz, Initial residual = 3.72302e-05, Final residual = 1.1172e-06, No Iterations 2
GAMG:  Solving for p, Initial residual = 6.14079e-05, Final residual = 2.78277e-06, No Iterations 5
GAMG:  Solving for p, Initial residual = 3.41622e-05, Final residual = 1.29226e-06, No Iterations 4
GAMG:  Solving for p, Initial residual = 1.14731e-05, Final residual = 9.57584e-07, No Iterations 2
time step continuity errors : sum local = 1.78655e-09, global = -4.02427e-12, cumulative = 4.74323e-05
smoothSolver:  Solving for epsilon, Initial residual = 0.0619725, Final residual = 0.000377711, No Iterations 1
smoothSolver:  Solving for k, Initial residual = 1.18696e-06, Final residual = 2.04059e-08, No Iterations 2
bounding k, min: -0.00702799 max: 10.1917 average: 1.57746
ExecutionTime = 579.831 s  ClockTime = 586 s

Time = 997s

smoothSolver:  Solving for Ux, Initial residual = 7.93937e-07, Final residual = 7.81529e-08, No Iterations 1
smoothSolver:  Solving for Uy, Initial residual = 1.9719e-05, Final residual = 8.59265e-07, No Iterations 2
smoothSolver:  Solving for Uz, Initial residual = 4.70624e-05, Final residual = 1.31388e-06, No Iterations 2
GAMG:  Solving for p, Initial residual = 5.43606e-05, Final residual = 2.63328e-06, No Iterations 4
GAMG:  Solving for p, Initial residual = 2.68047e-05, Final residual = 1.19476e-06, No Iterations 4
GAMG:  Solving for p, Initial residual = 1.03893e-05, Final residual = 8.31779e-07, No Iterations 2
time step continuity errors : sum local = 1.55189e-09, global = -3.90399e-12, cumulative = 4.74323e-05
smoothSolver:  Solving for epsilon, Initial residual = 0.0619653, Final residual = 0.000377677, No Iterations 1
smoothSolver:  Solving for k, Initial residual = 1.21414e-06, Final residual = 1.1473e-07, No Iterations 1
bounding k, min: -0.0144441 max: 10.1917 average: 1.57746
ExecutionTime = 580.363 s  ClockTime = 586 s

Time = 998s

smoothSolver:  Solving for Ux, Initial residual = 5.36679e-07, Final residual = 5.38242e-08, No Iterations 1
smoothSolver:  Solving for Uy, Initial residual = 1.65355e-05, Final residual = 7.93523e-07, No Iterations 2
smoothSolver:  Solving for Uz, Initial residual = 3.18363e-05, Final residual = 8.92722e-07, No Iterations 2
GAMG:  Solving for p, Initial residual = 3.8765e-05, Final residual = 1.70518e-06, No Iterations 4
GAMG:  Solving for p, Initial residual = 1.90152e-05, Final residual = 9.68488e-07, No Iterations 3
GAMG:  Solving for p, Initial residual = 6.68353e-06, Final residual = 6.16917e-07, No Iterations 2
time step continuity errors : sum local = 1.15098e-09, global = -4.82792e-12, cumulative = 4.74323e-05
smoothSolver:  Solving for epsilon, Initial residual = 0.0619717, Final residual = 0.000377715, No Iterations 1
smoothSolver:  Solving for k, Initial residual = 1.10315e-06, Final residual = 1.10061e-07, No Iterations 1
ExecutionTime = 580.861 s  ClockTime = 587 s

Time = 999s

smoothSolver:  Solving for Ux, Initial residual = 5.72777e-07, Final residual = 7.07476e-08, No Iterations 1
smoothSolver:  Solving for Uy, Initial residual = 1.64305e-05, Final residual = 7.77828e-07, No Iterations 2
smoothSolver:  Solving for Uz, Initial residual = 3.04549e-05, Final residual = 8.60477e-07, No Iterations 2
GAMG:  Solving for p, Initial residual = 4.77054e-05, Final residual = 2.18869e-06, No Iterations 5
GAMG:  Solving for p, Initial residual = 2.4732e-05, Final residual = 1.1766e-06, No Iterations 3
GAMG:  Solving for p, Initial residual = 7.47049e-06, Final residual = 7.64458e-07, No Iterations 2
time step continuity errors : sum local = 1.42631e-09, global = -3.9235e-12, cumulative = 4.74323e-05
smoothSolver:  Solving for epsilon, Initial residual = 0.0619668, Final residual = 0.000377677, No Iterations 1
smoothSolver:  Solving for k, Initial residual = 1.24975e-06, Final residual = 2.04947e-08, No Iterations 2
bounding k, min: -0.230757 max: 10.1917 average: 1.57746
ExecutionTime = 581.386 s  ClockTime = 587 s

Time = 1000s

smoothSolver:  Solving for Ux, Initial residual = 9.61018e-07, Final residual = 9.30691e-08, No Iterations 1
smoothSolver:  Solving for Uy, Initial residual = 2.06456e-05, Final residual = 8.97884e-07, No Iterations 2
smoothSolver:  Solving for Uz, Initial residual = 3.64992e-05, Final residual = 1.06264e-06, No Iterations 2
GAMG:  Solving for p, Initial residual = 5.63564e-05, Final residual = 2.30556e-06, No Iterations 5
GAMG:  Solving for p, Initial residual = 3.10063e-05, Final residual = 1.45968e-06, No Iterations 3
GAMG:  Solving for p, Initial residual = 9.50131e-06, Final residual = 9.3149e-07, No Iterations 2
time step continuity errors : sum local = 1.73786e-09, global = -1.6916e-12, cumulative = 4.74323e-05
smoothSolver:  Solving for epsilon, Initial residual = 0.0619725, Final residual = 0.000377713, No Iterations 1
smoothSolver:  Solving for k, Initial residual = 1.22971e-06, Final residual = 2.14094e-08, No Iterations 2
ExecutionTime = 582.583 s  ClockTime = 589 s

End

