/*---------------------------------------------------------------------------*\
  =========                 |
  \\      /  F ield         | OpenFOAM: The Open Source CFD Toolbox
   \\    /   O peration     | Website:  https://openfoam.org
    \\  /    A nd           | Version:  13
     \\/     M anipulation  |
\*---------------------------------------------------------------------------*/
Build  : 13-441953dfbb42
Exec   : foamRun -solver incompressibleFluid
Date   : Jun 19 2026
Time   : 13:00:16
Host   : "openfoam"
PID    : 1808
I/O    : uncollated
Case   : /home/ubuntu/OpenFOAM/ubuntu-v13/run/sRiverNoTerrain/rans/summer
nProcs : 1
sigFpe : Floating point exception trapping - not supported on this platform
fileModificationChecking : Monitoring run-time modified files using timeStampMaster (fileModificationSkew 10)
allowSystemOperations : Allowing user-supplied system call operations

// * * * * * * * * * * * * * * * * * * * * * * * * * * * * * * * * * * * * * //
Create time

Create mesh for time = 0

Selecting solver incompressibleFluid
Selecting viscosity model constant
Selecting turbulence model type RAS
    Selecting RAS turbulence model kEpsilon
No MRF models present


SIMPLE: Convergence criteria found
        p: tolerance 1e-05
        U: tolerance 1e-06
        k: tolerance 1e-06
        epsilon: tolerance 1e-06


SIMPLE: Operating solver in steady-state mode with 1 outer corrector
SIMPLE: Operating solver in SIMPLE mode



Starting time loop

Reading surface description:
    pedestrianZone

Time = 1s

smoothSolver:  Solving for Ux, Initial residual = 1, Final residual = 0.084739, No Iterations 1
smoothSolver:  Solving for Uy, Initial residual = 1, Final residual = 0.0396278, No Iterations 2
smoothSolver:  Solving for Uz, Initial residual = 1, Final residual = 0.0873824, No Iterations 1
GAMG:  Solving for p, Initial residual = 1, Final residual = 0.047192, No Iterations 101
GAMG:  Solving for p, Initial residual = 0.236886, Final residual = 0.00779409, No Iterations 3
GAMG:  Solving for p, Initial residual = 0.0608398, Final residual = 0.00229009, No Iterations 3
time step continuity errors : sum local = 0.000454025, global = -2.28164e-05, cumulative = -2.28164e-05
smoothSolver:  Solving for epsilon, Initial residual = 0.501004, Final residual = 0.00143962, No Iterations 1
smoothSolver:  Solving for k, Initial residual = 1, Final residual = 0.00896523, No Iterations 1
ExecutionTime = 3.84834 s  ClockTime = 7 s

Time = 2s

smoothSolver:  Solving for Ux, Initial residual = 0.506625, Final residual = 0.0366832, No Iterations 1
smoothSolver:  Solving for Uy, Initial residual = 0.554119, Final residual = 0.0150448, No Iterations 2
smoothSolver:  Solving for Uz, Initial residual = 0.244553, Final residual = 0.00878952, No Iterations 2
GAMG:  Solving for p, Initial residual = 0.0523375, Final residual = 0.00252106, No Iterations 72
GAMG:  Solving for p, Initial residual = 0.158204, Final residual = 0.00699816, No Iterations 3
GAMG:  Solving for p, Initial residual = 0.0470156, Final residual = 0.00202327, No Iterations 4
time step continuity errors : sum local = 0.000317834, global = 4.56446e-05, cumulative = 2.28283e-05
smoothSolver:  Solving for epsilon, Initial residual = 0.235671, Final residual = 9.25117e-05, No Iterations 1
smoothSolver:  Solving for k, Initial residual = 0.225253, Final residual = 0.00228146, No Iterations 1
ExecutionTime = 5.58425 s  ClockTime = 8 s

Time = 3s

smoothSolver:  Solving for Ux, Initial residual = 0.306189, Final residual = 0.0195873, No Iterations 1
smoothSolver:  Solving for Uy, Initial residual = 0.305819, Final residual = 0.00733696, No Iterations 2
smoothSolver:  Solving for Uz, Initial residual = 0.16742, Final residual = 0.00475928, No Iterations 2
GAMG:  Solving for p, Initial residual = 0.0504189, Final residual = 0.00246916, No Iterations 70
GAMG:  Solving for p, Initial residual = 0.39555, Final residual = 0.0169874, No Iterations 3
GAMG:  Solving for p, Initial residual = 0.147547, Final residual = 0.00590089, No Iterations 4
time step continuity errors : sum local = 0.000440473, global = -5.2299e-05, cumulative = -2.94708e-05
smoothSolver:  Solving for epsilon, Initial residual = 0.0562398, Final residual = 3.47806e-05, No Iterations 1
smoothSolver:  Solving for k, Initial residual = 0.0824175, Final residual = 0.00121657, No Iterations 1
ExecutionTime = 7.24895 s  ClockTime = 10 s

Time = 4s

smoothSolver:  Solving for Ux, Initial residual = 0.109687, Final residual = 0.00768542, No Iterations 1
smoothSolver:  Solving for Uy, Initial residual = 0.162854, Final residual = 0.0156696, No Iterations 1
smoothSolver:  Solving for Uz, Initial residual = 0.149544, Final residual = 0.00414766, No Iterations 2
GAMG:  Solving for p, Initial residual = 0.0691942, Final residual = 0.00338532, No Iterations 96
GAMG:  Solving for p, Initial residual = 0.304208, Final residual = 0.0117989, No Iterations 3
GAMG:  Solving for p, Initial residual = 0.0890563, Final residual = 0.00317522, No Iterations 3
time step continuity errors : sum local = 0.000614323, global = -2.58962e-05, cumulative = -5.53669e-05
smoothSolver:  Solving for epsilon, Initial residual = 0.0244096, Final residual = 2.79133e-05, No Iterations 1
smoothSolver:  Solving for k, Initial residual = 0.046633, Final residual = 0.000820436, No Iterations 1
ExecutionTime = 9.33699 s  ClockTime = 12 s

Time = 5s

smoothSolver:  Solving for Ux, Initial residual = 0.120528, Final residual = 0.00706387, No Iterations 1
smoothSolver:  Solving for Uy, Initial residual = 0.192292, Final residual = 0.0177502, No Iterations 1
smoothSolver:  Solving for Uz, Initial residual = 0.253466, Final residual = 0.00714061, No Iterations 2
GAMG:  Solving for p, Initial residual = 0.0963295, Final residual = 0.00460047, No Iterations 53
GAMG:  Solving for p, Initial residual = 0.191602, Final residual = 0.00814249, No Iterations 3
GAMG:  Solving for p, Initial residual = 0.054202, Final residual = 0.00223851, No Iterations 5
time step continuity errors : sum local = 0.000221396, global = 2.2579e-05, cumulative = -3.27879e-05
smoothSolver:  Solving for epsilon, Initial residual = 0.0144604, Final residual = 3.29141e-05, No Iterations 1
smoothSolver:  Solving for k, Initial residual = 0.037034, Final residual = 0.000776729, No Iterations 1
ExecutionTime = 10.7281 s  ClockTime = 13 s

Time = 6s

smoothSolver:  Solving for Ux, Initial residual = 0.206027, Final residual = 0.0136613, No Iterations 1
smoothSolver:  Solving for Uy, Initial residual = 0.256486, Final residual = 0.00507459, No Iterations 2
smoothSolver:  Solving for Uz, Initial residual = 0.178127, Final residual = 0.00581465, No Iterations 2
GAMG:  Solving for p, Initial residual = 0.0715439, Final residual = 0.00353118, No Iterations 52
GAMG:  Solving for p, Initial residual = 0.318611, Final residual = 0.0126061, No Iterations 3
GAMG:  Solving for p, Initial residual = 0.116514, Final residual = 0.00577592, No Iterations 4
time step continuity errors : sum local = 0.000303727, global = 6.30812e-05, cumulative = 3.02932e-05
smoothSolver:  Solving for epsilon, Initial residual = 0.0101078, Final residual = 4.38406e-05, No Iterations 1
smoothSolver:  Solving for k, Initial residual = 0.0180645, Final residual = 0.000839746, No Iterations 1
bounding k, min: -0.0179193 max: 15.6947 average: 2.00585
ExecutionTime = 12.1244 s  ClockTime = 15 s

Time = 7s

smoothSolver:  Solving for Ux, Initial residual = 0.0978097, Final residual = 0.00809003, No Iterations 1
smoothSolver:  Solving for Uy, Initial residual = 0.209965, Final residual = 0.00483354, No Iterations 2
smoothSolver:  Solving for Uz, Initial residual = 0.175107, Final residual = 0.00610018, No Iterations 2
GAMG:  Solving for p, Initial residual = 0.101956, Final residual = 0.00501309, No Iterations 74
GAMG:  Solving for p, Initial residual = 0.293503, Final residual = 0.0111028, No Iterations 3
GAMG:  Solving for p, Initial residual = 0.0852573, Final residual = 0.00392513, No Iterations 3
time step continuity errors : sum local = 0.000449376, global = 2.77226e-05, cumulative = 5.80158e-05
smoothSolver:  Solving for epsilon, Initial residual = 0.00769821, Final residual = 5.95616e-05, No Iterations 1
smoothSolver:  Solving for k, Initial residual = 0.0140504, Final residual = 0.000896733, No Iterations 1
bounding k, min: -0.0132237 max: 14.3698 average: 1.79088
ExecutionTime = 14.0651 s  ClockTime = 17 s

Time = 8s

smoothSolver:  Solving for Ux, Initial residual = 0.0807448, Final residual = 0.00497279, No Iterations 1
smoothSolver:  Solving for Uy, Initial residual = 0.159927, Final residual = 0.00379773, No Iterations 2
smoothSolver:  Solving for Uz, Initial residual = 0.219246, Final residual = 0.00696241, No Iterations 2
GAMG:  Solving for p, Initial residual = 0.127716, Final residual = 0.00622617, No Iterations 29
GAMG:  Solving for p, Initial residual = 0.224924, Final residual = 0.00917895, No Iterations 3
GAMG:  Solving for p, Initial residual = 0.0609119, Final residual = 0.00273166, No Iterations 5
time step continuity errors : sum local = 0.000168843, global = -1.5571e-05, cumulative = 4.24448e-05
smoothSolver:  Solving for epsilon, Initial residual = 0.00621966, Final residual = 5.92415e-05, No Iterations 1
smoothSolver:  Solving for k, Initial residual = 0.00964422, Final residual = 0.000838697, No Iterations 1
ExecutionTime = 15.1336 s  ClockTime = 18 s

Time = 9s

smoothSolver:  Solving for Ux, Initial residual = 0.101585, Final residual = 0.00713526, No Iterations 1
smoothSolver:  Solving for Uy, Initial residual = 0.157292, Final residual = 0.00376679, No Iterations 2
smoothSolver:  Solving for Uz, Initial residual = 0.161449, Final residual = 0.00489731, No Iterations 2
GAMG:  Solving for p, Initial residual = 0.0883192, Final residual = 0.00420727, No Iterations 40
GAMG:  Solving for p, Initial residual = 0.232009, Final residual = 0.00999124, No Iterations 3
GAMG:  Solving for p, Initial residual = 0.0858663, Final residual = 0.00374848, No Iterations 9
time step continuity errors : sum local = 0.000108523, global = 1.54643e-05, cumulative = 5.79091e-05
smoothSolver:  Solving for epsilon, Initial residual = 0.00580579, Final residual = 5.36008e-05, No Iterations 1
smoothSolver:  Solving for k, Initial residual = 0.0138055, Final residual = 0.000889499, No Iterations 1
bounding k, min: -0.000743715 max: 12.2001 average: 1.79704
ExecutionTime = 16.3815 s  ClockTime = 19 s

Time = 10s

smoothSolver:  Solving for Ux, Initial residual = 0.044998, Final residual = 0.00395564, No Iterations 1
smoothSolver:  Solving for Uy, Initial residual = 0.148343, Final residual = 0.00370489, No Iterations 2
smoothSolver:  Solving for Uz, Initial residual = 0.162558, Final residual = 0.00540311, No Iterations 2
GAMG:  Solving for p, Initial residual = 0.11317, Final residual = 0.00557001, No Iterations 64
GAMG:  Solving for p, Initial residual = 0.264154, Final residual = 0.0102363, No Iterations 3
GAMG:  Solving for p, Initial residual = 0.0798825, Final residual = 0.00315994, No Iterations 4
time step continuity errors : sum local = 0.000197035, global = -1.82666e-05, cumulative = 3.96425e-05
smoothSolver:  Solving for epsilon, Initial residual = 0.00622207, Final residual = 5.77609e-05, No Iterations 1
smoothSolver:  Solving for k, Initial residual = 0.0134895, Final residual = 0.000820195, No Iterations 1
bounding k, min: -0.00130185 max: 12.7767 average: 1.83352
ExecutionTime = 17.9705 s  ClockTime = 21 s

Time = 11s

smoothSolver:  Solving for Ux, Initial residual = 0.0396381, Final residual = 0.00338932, No Iterations 1
smoothSolver:  Solving for Uy, Initial residual = 0.146371, Final residual = 0.00332424, No Iterations 2
smoothSolver:  Solving for Uz, Initial residual = 0.207871, Final residual = 0.00637345, No Iterations 2
GAMG:  Solving for p, Initial residual = 0.169198, Final residual = 0.00833271, No Iterations 37
GAMG:  Solving for p, Initial residual = 0.247946, Final residual = 0.0102633, No Iterations 3
GAMG:  Solving for p, Initial residual = 0.0688507, Final residual = 0.0029946, No Iterations 7
time step continuity errors : sum local = 0.00010617, global = 1.34919e-05, cumulative = 5.31344e-05
smoothSolver:  Solving for epsilon, Initial residual = 0.00659645, Final residual = 5.23307e-05, No Iterations 1
smoothSolver:  Solving for k, Initial residual = 0.0153425, Final residual = 0.000741458, No Iterations 1
bounding k, min: -0.00370944 max: 12.9719 average: 1.81853
ExecutionTime = 19.1578 s  ClockTime = 22 s

Time = 12s

smoothSolver:  Solving for Ux, Initial residual = 0.0549719, Final residual = 0.00444557, No Iterations 1
smoothSolver:  Solving for Uy, Initial residual = 0.146111, Final residual = 0.00339438, No Iterations 2
smoothSolver:  Solving for Uz, Initial residual = 0.162062, Final residual = 0.00493979, No Iterations 2
GAMG:  Solving for p, Initial residual = 0.12701, Final residual = 0.00585552, No Iterations 28
GAMG:  Solving for p, Initial residual = 0.20467, Final residual = 0.0077381, No Iterations 4
GAMG:  Solving for p, Initial residual = 0.0703028, Final residual = 0.00342962, No Iterations 12
time step continuity errors : sum local = 6.01643e-05, global = -8.63681e-06, cumulative = 4.44976e-05
smoothSolver:  Solving for epsilon, Initial residual = 0.00791659, Final residual = 5.8275e-05, No Iterations 1
smoothSolver:  Solving for k, Initial residual = 0.0161511, Final residual = 0.000762889, No Iterations 1
bounding k, min: -0.010181 max: 12.8722 average: 1.76603
ExecutionTime = 20.2913 s  ClockTime = 23 s

Time = 13s

smoothSolver:  Solving for Ux, Initial residual = 0.0295483, Final residual = 0.0007227, No Iterations 2
smoothSolver:  Solving for Uy, Initial residual = 0.138549, Final residual = 0.00362798, No Iterations 2
smoothSolver:  Solving for Uz, Initial residual = 0.136959, Final residual = 0.00480142, No Iterations 2
GAMG:  Solving for p, Initial residual = 0.158022, Final residual = 0.00776395, No Iterations 50
GAMG:  Solving for p, Initial residual = 0.224383, Final residual = 0.00877198, No Iterations 3
GAMG:  Solving for p, Initial residual = 0.0681802, Final residual = 0.00302327, No Iterations 5
time step continuity errors : sum local = 0.000108461, global = -1.12189e-05, cumulative = 3.32787e-05
smoothSolver:  Solving for epsilon, Initial residual = 0.0107286, Final residual = 8.05398e-05, No Iterations 1
smoothSolver:  Solving for k, Initial residual = 0.0129806, Final residual = 0.000792849, No Iterations 1
bounding k, min: -0.000890613 max: 12.6474 average: 1.70813
ExecutionTime = 21.6486 s  ClockTime = 24 s

Time = 14s

smoothSolver:  Solving for Ux, Initial residual = 0.0262329, Final residual = 0.00197927, No Iterations 1
smoothSolver:  Solving for Uy, Initial residual = 0.103521, Final residual = 0.00335946, No Iterations 2
smoothSolver:  Solving for Uz, Initial residual = 0.164994, Final residual = 0.0054915, No Iterations 2
GAMG:  Solving for p, Initial residual = 0.203952, Final residual = 0.0101346, No Iterations 43
GAMG:  Solving for p, Initial residual = 0.250067, Final residual = 0.0102567, No Iterations 3
GAMG:  Solving for p, Initial residual = 0.0673275, Final residual = 0.00307023, No Iterations 7
time step continuity errors : sum local = 8.16711e-05, global = -1.0125e-05, cumulative = 2.31537e-05
smoothSolver:  Solving for epsilon, Initial residual = 0.015327, Final residual = 0.000108209, No Iterations 1
smoothSolver:  Solving for k, Initial residual = 0.013022, Final residual = 0.000777228, No Iterations 1
bounding k, min: -3.25983e-05 max: 12.4573 average: 1.67474
ExecutionTime = 22.9145 s  ClockTime = 26 s

Time = 15s

smoothSolver:  Solving for Ux, Initial residual = 0.0321366, Final residual = 0.00250079, No Iterations 1
smoothSolver:  Solving for Uy, Initial residual = 0.105915, Final residual = 0.00323514, No Iterations 2
smoothSolver:  Solving for Uz, Initial residual = 0.157198, Final residual = 0.00481276, No Iterations 2
GAMG:  Solving for p, Initial residual = 0.139389, Final residual = 0.00643717, No Iterations 24
GAMG:  Solving for p, Initial residual = 0.228916, Final residual = 0.00923271, No Iterations 4
GAMG:  Solving for p, Initial residual = 0.0681105, Final residual = 0.00326345, No Iterations 12
time step continuity errors : sum local = 3.74948e-05, global = 4.51185e-06, cumulative = 2.76656e-05
smoothSolver:  Solving for epsilon, Initial residual = 0.0206379, Final residual = 0.000128386, No Iterations 1
smoothSolver:  Solving for k, Initial residual = 0.0141871, Final residual = 0.000753418, No Iterations 1
ExecutionTime = 23.9674 s  ClockTime = 27 s

Time = 16s

smoothSolver:  Solving for Ux, Initial residual = 0.0216232, Final residual = 0.00213501, No Iterations 1
smoothSolver:  Solving for Uy, Initial residual = 0.119066, Final residual = 0.00344806, No Iterations 2
smoothSolver:  Solving for Uz, Initial residual = 0.141101, Final residual = 0.00442737, No Iterations 2
GAMG:  Solving for p, Initial residual = 0.149244, Final residual = 0.00697985, No Iterations 38
GAMG:  Solving for p, Initial residual = 0.189363, Final residual = 0.00826648, No Iterations 3
GAMG:  Solving for p, Initial residual = 0.0607584, Final residual = 0.00289982, No Iterations 9
time step continuity errors : sum local = 5.53956e-05, global = 7.89978e-06, cumulative = 3.55653e-05
smoothSolver:  Solving for epsilon, Initial residual = 0.0255778, Final residual = 0.000145415, No Iterations 1
smoothSolver:  Solving for k, Initial residual = 0.0115914, Final residual = 0.000720792, No Iterations 1
ExecutionTime = 25.174 s  ClockTime = 28 s

Time = 17s

smoothSolver:  Solving for Ux, Initial residual = 0.0157293, Final residual = 0.00048071, No Iterations 2
smoothSolver:  Solving for Uy, Initial residual = 0.10315, Final residual = 0.00348194, No Iterations 2
smoothSolver:  Solving for Uz, Initial residual = 0.138182, Final residual = 0.00427775, No Iterations 2
GAMG:  Solving for p, Initial residual = 0.239661, Final residual = 0.0113144, No Iterations 43
GAMG:  Solving for p, Initial residual = 0.251398, Final residual = 0.0106963, No Iterations 3
GAMG:  Solving for p, Initial residual = 0.0736135, Final residual = 0.00329406, No Iterations 9
time step continuity errors : sum local = 5.34349e-05, global = 7.89052e-06, cumulative = 4.34559e-05
smoothSolver:  Solving for epsilon, Initial residual = 0.0272442, Final residual = 0.000161731, No Iterations 1
smoothSolver:  Solving for k, Initial residual = 0.0112051, Final residual = 0.000723241, No Iterations 1
bounding k, min: -0.000193312 max: 12.2073 average: 1.66575
ExecutionTime = 26.4895 s  ClockTime = 29 s

Time = 18s

smoothSolver:  Solving for Ux, Initial residual = 0.0178426, Final residual = 0.000497271, No Iterations 2
smoothSolver:  Solving for Uy, Initial residual = 0.0908517, Final residual = 0.00328162, No Iterations 2
smoothSolver:  Solving for Uz, Initial residual = 0.130474, Final residual = 0.00395567, No Iterations 2
GAMG:  Solving for p, Initial residual = 0.189019, Final residual = 0.00941622, No Iterations 22
GAMG:  Solving for p, Initial residual = 0.280393, Final residual = 0.0113367, No Iterations 4
GAMG:  Solving for p, Initial residual = 0.085669, Final residual = 0.00416126, No Iterations 12
time step continuity errors : sum local = 3.43814e-05, global = -4.8129e-06, cumulative = 3.86429e-05
smoothSolver:  Solving for epsilon, Initial residual = 0.0288145, Final residual = 0.000176575, No Iterations 1
smoothSolver:  Solving for k, Initial residual = 0.0119636, Final residual = 0.000720048, No Iterations 1
ExecutionTime = 27.5037 s  ClockTime = 30 s

Time = 19s

smoothSolver:  Solving for Ux, Initial residual = 0.015051, Final residual = 0.000454503, No Iterations 2
smoothSolver:  Solving for Uy, Initial residual = 0.0913237, Final residual = 0.00308704, No Iterations 2
smoothSolver:  Solving for Uz, Initial residual = 0.126436, Final residual = 0.00407625, No Iterations 2
GAMG:  Solving for p, Initial residual = 0.206472, Final residual = 0.00963959, No Iterations 28
GAMG:  Solving for p, Initial residual = 0.17544, Final residual = 0.00669475, No Iterations 4
GAMG:  Solving for p, Initial residual = 0.0579259, Final residual = 0.00283058, No Iterations 12
time step continuity errors : sum local = 3.36823e-05, global = -4.93036e-06, cumulative = 3.37126e-05
smoothSolver:  Solving for epsilon, Initial residual = 0.0291213, Final residual = 0.000181454, No Iterations 1
smoothSolver:  Solving for k, Initial residual = 0.0111464, Final residual = 0.00072762, No Iterations 1
bounding k, min: -0.00259559 max: 11.8293 average: 1.63898
ExecutionTime = 28.6279 s  ClockTime = 31 s

Time = 20s

smoothSolver:  Solving for Ux, Initial residual = 0.0136777, Final residual = 0.000356223, No Iterations 2
smoothSolver:  Solving for Uy, Initial residual = 0.0856207, Final residual = 0.00302335, No Iterations 2
smoothSolver:  Solving for Uz, Initial residual = 0.132045, Final residual = 0.00414398, No Iterations 2
GAMG:  Solving for p, Initial residual = 0.237885, Final residual = 0.0112514, No Iterations 33
GAMG:  Solving for p, Initial residual = 0.221535, Final residual = 0.0101665, No Iterations 3
GAMG:  Solving for p, Initial residual = 0.0671918, Final residual = 0.0031078, No Iterations 11
time step continuity errors : sum local = 3.83158e-05, global = -6.24252e-06, cumulative = 2.74701e-05
smoothSolver:  Solving for epsilon, Initial residual = 0.0306123, Final residual = 0.000194096, No Iterations 1
smoothSolver:  Solving for k, Initial residual = 0.00987328, Final residual = 0.000690504, No Iterations 1
bounding k, min: -0.000448795 max: 11.597 average: 1.62461
ExecutionTime = 29.7981 s  ClockTime = 33 s

Time = 21s

smoothSolver:  Solving for Ux, Initial residual = 0.0139537, Final residual = 0.00132971, No Iterations 1
smoothSolver:  Solving for Uy, Initial residual = 0.0831742, Final residual = 0.00321162, No Iterations 2
smoothSolver:  Solving for Uz, Initial residual = 0.126018, Final residual = 0.00373712, No Iterations 2
GAMG:  Solving for p, Initial residual = 0.200098, Final residual = 0.00925472, No Iterations 26
GAMG:  Solving for p, Initial residual = 0.273369, Final residual = 0.0133241, No Iterations 3
GAMG:  Solving for p, Initial residual = 0.0759899, Final residual = 0.00359316, No Iterations 12
time step continuity errors : sum local = 3.23261e-05, global = -5.36285e-06, cumulative = 2.21072e-05
smoothSolver:  Solving for epsilon, Initial residual = 0.0295835, Final residual = 0.000183968, No Iterations 1
smoothSolver:  Solving for k, Initial residual = 0.00929802, Final residual = 0.000669288, No Iterations 1
bounding k, min: -4.19957e-05 max: 11.4152 average: 1.61832
ExecutionTime = 30.8542 s  ClockTime = 34 s

Time = 22s

smoothSolver:  Solving for Ux, Initial residual = 0.012099, Final residual = 0.000332314, No Iterations 2
smoothSolver:  Solving for Uy, Initial residual = 0.0809422, Final residual = 0.00333751, No Iterations 2
smoothSolver:  Solving for Uz, Initial residual = 0.108993, Final residual = 0.00318593, No Iterations 2
GAMG:  Solving for p, Initial residual = 0.182544, Final residual = 0.00902552, No Iterations 22
GAMG:  Solving for p, Initial residual = 0.209699, Final residual = 0.00964232, No Iterations 4
GAMG:  Solving for p, Initial residual = 0.0615999, Final residual = 0.00304263, No Iterations 14
time step continuity errors : sum local = 2.17495e-05, global = 2.96298e-06, cumulative = 2.50702e-05
smoothSolver:  Solving for epsilon, Initial residual = 0.0311684, Final residual = 0.000192181, No Iterations 1
smoothSolver:  Solving for k, Initial residual = 0.00878033, Final residual = 0.000613324, No Iterations 1
bounding k, min: -0.00025451 max: 11.2995 average: 1.61789
ExecutionTime = 31.8992 s  ClockTime = 35 s

Time = 23s

smoothSolver:  Solving for Ux, Initial residual = 0.00992783, Final residual = 0.000351122, No Iterations 2
smoothSolver:  Solving for Uy, Initial residual = 0.0766445, Final residual = 0.0033367, No Iterations 2
smoothSolver:  Solving for Uz, Initial residual = 0.103812, Final residual = 0.00322389, No Iterations 2
GAMG:  Solving for p, Initial residual = 0.188011, Final residual = 0.009157, No Iterations 23
GAMG:  Solving for p, Initial residual = 0.203012, Final residual = 0.00917634, No Iterations 4
GAMG:  Solving for p, Initial residual = 0.0650462, Final residual = 0.00320907, No Iterations 18
time step continuity errors : sum local = 2.0983e-05, global = 3.20122e-06, cumulative = 2.82714e-05
smoothSolver:  Solving for epsilon, Initial residual = 0.0302504, Final residual = 0.000183218, No Iterations 1
smoothSolver:  Solving for k, Initial residual = 0.00830643, Final residual = 0.000626154, No Iterations 1
bounding k, min: -0.0259692 max: 11.2333 average: 1.61893
ExecutionTime = 33.025 s  ClockTime = 36 s

Time = 24s

smoothSolver:  Solving for Ux, Initial residual = 0.00938153, Final residual = 0.000354659, No Iterations 2
smoothSolver:  Solving for Uy, Initial residual = 0.070187, Final residual = 0.00315507, No Iterations 2
smoothSolver:  Solving for Uz, Initial residual = 0.107086, Final residual = 0.00342462, No Iterations 2
GAMG:  Solving for p, Initial residual = 0.22808, Final residual = 0.0109962, No Iterations 23
GAMG:  Solving for p, Initial residual = 0.240524, Final residual = 0.0113317, No Iterations 4
GAMG:  Solving for p, Initial residual = 0.0790181, Final residual = 0.00390277, No Iterations 20
time step continuity errors : sum local = 2.14389e-05, global = 3.54854e-06, cumulative = 3.182e-05
smoothSolver:  Solving for epsilon, Initial residual = 0.0323303, Final residual = 0.000198586, No Iterations 1
smoothSolver:  Solving for k, Initial residual = 0.00830123, Final residual = 0.000615053, No Iterations 1
bounding k, min: -6.68493e-05 max: 11.184 average: 1.61772
ExecutionTime = 34.1849 s  ClockTime = 37 s

Time = 25s

smoothSolver:  Solving for Ux, Initial residual = 0.00861506, Final residual = 0.000330808, No Iterations 2
smoothSolver:  Solving for Uy, Initial residual = 0.0673045, Final residual = 0.00284131, No Iterations 2
smoothSolver:  Solving for Uz, Initial residual = 0.114767, Final residual = 0.00353793, No Iterations 2
GAMG:  Solving for p, Initial residual = 0.248925, Final residual = 0.0115243, No Iterations 20
GAMG:  Solving for p, Initial residual = 0.189762, Final residual = 0.00820136, No Iterations 4
GAMG:  Solving for p, Initial residual = 0.0607776, Final residual = 0.00285168, No Iterations 14
time step continuity errors : sum local = 1.80047e-05, global = -2.87266e-06, cumulative = 2.89473e-05
smoothSolver:  Solving for epsilon, Initial residual = 0.0317977, Final residual = 0.000197207, No Iterations 1
smoothSolver:  Solving for k, Initial residual = 0.00831387, Final residual = 0.000640781, No Iterations 1
bounding k, min: -0.00680109 max: 11.1272 average: 1.61297
ExecutionTime = 35.1922 s  ClockTime = 38 s

Time = 26s

smoothSolver:  Solving for Ux, Initial residual = 0.00818769, Final residual = 0.000297699, No Iterations 2
smoothSolver:  Solving for Uy, Initial residual = 0.0672939, Final residual = 0.00265226, No Iterations 2
smoothSolver:  Solving for Uz, Initial residual = 0.115481, Final residual = 0.00333413, No Iterations 2
GAMG:  Solving for p, Initial residual = 0.222523, Final residual = 0.0101688, No Iterations 17
GAMG:  Solving for p, Initial residual = 0.15029, Final residual = 0.00706159, No Iterations 4
GAMG:  Solving for p, Initial residual = 0.0498873, Final residual = 0.00233792, No Iterations 16
time step continuity errors : sum local = 1.43625e-05, global = -2.08086e-06, cumulative = 2.68664e-05
smoothSolver:  Solving for epsilon, Initial residual = 0.0334243, Final residual = 0.000211107, No Iterations 1
smoothSolver:  Solving for k, Initial residual = 0.00745104, Final residual = 0.000617003, No Iterations 1
bounding k, min: -5.4192e-05 max: 11.0597 average: 1.60599
ExecutionTime = 36.1814 s  ClockTime = 39 s

Time = 27s

smoothSolver:  Solving for Ux, Initial residual = 0.0081879, Final residual = 0.000268693, No Iterations 2
smoothSolver:  Solving for Uy, Initial residual = 0.0659922, Final residual = 0.00271852, No Iterations 2
smoothSolver:  Solving for Uz, Initial residual = 0.109628, Final residual = 0.00307691, No Iterations 2
GAMG:  Solving for p, Initial residual = 0.196681, Final residual = 0.00922214, No Iterations 19
GAMG:  Solving for p, Initial residual = 0.172868, Final residual = 0.00823472, No Iterations 4
GAMG:  Solving for p, Initial residual = 0.0565986, Final residual = 0.00281721, No Iterations 18
time step continuity errors : sum local = 1.62154e-05, global = -2.56022e-06, cumulative = 2.43062e-05
smoothSolver:  Solving for epsilon, Initial residual = 0.0330708, Final residual = 0.000211244, No Iterations 1
smoothSolver:  Solving for k, Initial residual = 0.00724564, Final residual = 0.000609243, No Iterations 1
bounding k, min: -0.000129344 max: 10.9945 average: 1.5995
ExecutionTime = 37.238 s  ClockTime = 40 s

Time = 28s

smoothSolver:  Solving for Ux, Initial residual = 0.0074868, Final residual = 0.000258566, No Iterations 2
smoothSolver:  Solving for Uy, Initial residual = 0.0632819, Final residual = 0.00291748, No Iterations 2
smoothSolver:  Solving for Uz, Initial residual = 0.102881, Final residual = 0.00299704, No Iterations 2
GAMG:  Solving for p, Initial residual = 0.185704, Final residual = 0.00839876, No Iterations 15
GAMG:  Solving for p, Initial residual = 0.196165, Final residual = 0.00791825, No Iterations 4
GAMG:  Solving for p, Initial residual = 0.0592057, Final residual = 0.00275751, No Iterations 12
time step continuity errors : sum local = 1.64844e-05, global = 3.14279e-06, cumulative = 2.7449e-05
smoothSolver:  Solving for epsilon, Initial residual = 0.0345904, Final residual = 0.000221927, No Iterations 1
smoothSolver:  Solving for k, Initial residual = 0.00705187, Final residual = 0.000590618, No Iterations 1
bounding k, min: -0.00468852 max: 10.9448 average: 1.59572
ExecutionTime = 38.1296 s  ClockTime = 41 s

Time = 29s

smoothSolver:  Solving for Ux, Initial residual = 0.00651825, Final residual = 0.000259469, No Iterations 2
smoothSolver:  Solving for Uy, Initial residual = 0.061748, Final residual = 0.00295935, No Iterations 2
smoothSolver:  Solving for Uz, Initial residual = 0.0976925, Final residual = 0.00297016, No Iterations 2
GAMG:  Solving for p, Initial residual = 0.170996, Final residual = 0.00739702, No Iterations 17
GAMG:  Solving for p, Initial residual = 0.151665, Final residual = 0.00663865, No Iterations 4
GAMG:  Solving for p, Initial residual = 0.0461631, Final residual = 0.00216662, No Iterations 14
time step continuity errors : sum local = 1.21566e-05, global = 1.71765e-06, cumulative = 2.91667e-05
smoothSolver:  Solving for epsilon, Initial residual = 0.034768, Final residual = 0.000220013, No Iterations 1
smoothSolver:  Solving for k, Initial residual = 0.00706293, Final residual = 0.000593251, No Iterations 1
bounding k, min: -0.000434603 max: 10.9109 average: 1.59523
ExecutionTime = 39.085 s  ClockTime = 42 s

Time = 30s

smoothSolver:  Solving for Ux, Initial residual = 0.00595357, Final residual = 0.000265674, No Iterations 2
smoothSolver:  Solving for Uy, Initial residual = 0.0602483, Final residual = 0.00286876, No Iterations 2
smoothSolver:  Solving for Uz, Initial residual = 0.0941217, Final residual = 0.00288126, No Iterations 2
GAMG:  Solving for p, Initial residual = 0.158733, Final residual = 0.00726666, No Iterations 15
GAMG:  Solving for p, Initial residual = 0.108872, Final residual = 0.00491631, No Iterations 6
GAMG:  Solving for p, Initial residual = 0.0375848, Final residual = 0.00186088, No Iterations 18
time step continuity errors : sum local = 9.39738e-06, global = 1.39607e-06, cumulative = 3.05627e-05
smoothSolver:  Solving for epsilon, Initial residual = 0.03605, Final residual = 0.000226758, No Iterations 1
smoothSolver:  Solving for k, Initial residual = 0.00679462, Final residual = 0.000571474, No Iterations 1
bounding k, min: -0.00203319 max: 10.8794 average: 1.59703
ExecutionTime = 40.1079 s  ClockTime = 43 s

Time = 31s

smoothSolver:  Solving for Ux, Initial residual = 0.00568426, Final residual = 0.000265633, No Iterations 2
smoothSolver:  Solving for Uy, Initial residual = 0.0581249, Final residual = 0.00270793, No Iterations 2
smoothSolver:  Solving for Uz, Initial residual = 0.0935165, Final residual = 0.00289749, No Iterations 2
GAMG:  Solving for p, Initial residual = 0.152058, Final residual = 0.00734952, No Iterations 14
GAMG:  Solving for p, Initial residual = 0.122024, Final residual = 0.00553425, No Iterations 6
GAMG:  Solving for p, Initial residual = 0.0446743, Final residual = 0.00217366, No Iterations 21
time step continuity errors : sum local = 9.81578e-06, global = 1.54715e-06, cumulative = 3.21099e-05
smoothSolver:  Solving for epsilon, Initial residual = 0.0357972, Final residual = 0.000223614, No Iterations 1
smoothSolver:  Solving for k, Initial residual = 0.00650791, Final residual = 0.000564175, No Iterations 1
bounding k, min: -0.010852 max: 10.831 average: 1.59919
ExecutionTime = 41.1814 s  ClockTime = 44 s

Time = 32s

smoothSolver:  Solving for Ux, Initial residual = 0.00550152, Final residual = 0.000252151, No Iterations 2
smoothSolver:  Solving for Uy, Initial residual = 0.0537745, Final residual = 0.00251108, No Iterations 2
smoothSolver:  Solving for Uz, Initial residual = 0.0947007, Final residual = 0.00285977, No Iterations 2
GAMG:  Solving for p, Initial residual = 0.160698, Final residual = 0.00733236, No Iterations 13
GAMG:  Solving for p, Initial residual = 0.137015, Final residual = 0.00623568, No Iterations 5
GAMG:  Solving for p, Initial residual = 0.0485621, Final residual = 0.00227833, No Iterations 18
time step continuity errors : sum local = 9.86766e-06, global = 1.85535e-06, cumulative = 3.39652e-05
smoothSolver:  Solving for epsilon, Initial residual = 0.0367975, Final residual = 0.00023244, No Iterations 1
smoothSolver:  Solving for k, Initial residual = 0.00631211, Final residual = 0.000558993, No Iterations 1
bounding k, min: -0.0541266 max: 10.751 average: 1.59991
ExecutionTime = 42.1528 s  ClockTime = 45 s

Time = 33s

smoothSolver:  Solving for Ux, Initial residual = 0.00535248, Final residual = 0.000235082, No Iterations 2
smoothSolver:  Solving for Uy, Initial residual = 0.0488095, Final residual = 0.00238781, No Iterations 2
smoothSolver:  Solving for Uz, Initial residual = 0.0921621, Final residual = 0.00277147, No Iterations 2
GAMG:  Solving for p, Initial residual = 0.165104, Final residual = 0.00790528, No Iterations 12
GAMG:  Solving for p, Initial residual = 0.116128, Final residual = 0.00550411, No Iterations 6
GAMG:  Solving for p, Initial residual = 0.0421322, Final residual = 0.00203172, No Iterations 15
time step continuity errors : sum local = 8.21663e-06, global = -1.42964e-06, cumulative = 3.25356e-05
smoothSolver:  Solving for epsilon, Initial residual = 0.0373518, Final residual = 0.000238842, No Iterations 1
smoothSolver:  Solving for k, Initial residual = 0.00627366, Final residual = 0.000557686, No Iterations 1
bounding k, min: -0.00564899 max: 10.6348 average: 1.59884
ExecutionTime = 43.0734 s  ClockTime = 46 s

Time = 34s

smoothSolver:  Solving for Ux, Initial residual = 0.00510075, Final residual = 0.000221534, No Iterations 2
smoothSolver:  Solving for Uy, Initial residual = 0.0477183, Final residual = 0.00242352, No Iterations 2
smoothSolver:  Solving for Uz, Initial residual = 0.0927417, Final residual = 0.00279237, No Iterations 2
GAMG:  Solving for p, Initial residual = 0.162002, Final residual = 0.00735743, No Iterations 12
GAMG:  Solving for p, Initial residual = 0.104089, Final residual = 0.00479041, No Iterations 6
GAMG:  Solving for p, Initial residual = 0.0369503, Final residual = 0.00171287, No Iterations 15
time step continuity errors : sum local = 6.72137e-06, global = -1.07483e-06, cumulative = 3.14608e-05
smoothSolver:  Solving for epsilon, Initial residual = 0.0382483, Final residual = 0.00024767, No Iterations 1
smoothSolver:  Solving for k, Initial residual = 0.00613667, Final residual = 0.000542834, No Iterations 1
bounding k, min: -0.00152194 max: 10.49 average: 1.59705
ExecutionTime = 43.994 s  ClockTime = 47 s

Time = 35s

smoothSolver:  Solving for Ux, Initial residual = 0.00471239, Final residual = 0.000212637, No Iterations 2
smoothSolver:  Solving for Uy, Initial residual = 0.0517022, Final residual = 0.00261388, No Iterations 2
smoothSolver:  Solving for Uz, Initial residual = 0.0943182, Final residual = 0.00290312, No Iterations 2
GAMG:  Solving for p, Initial residual = 0.158618, Final residual = 0.00773225, No Iterations 11
GAMG:  Solving for p, Initial residual = 0.115784, Final residual = 0.00547593, No Iterations 5
GAMG:  Solving for p, Initial residual = 0.0388737, Final residual = 0.00191536, No Iterations 14
time step continuity errors : sum local = 7.99566e-06, global = -1.36605e-06, cumulative = 3.00947e-05
smoothSolver:  Solving for epsilon, Initial residual = 0.0388687, Final residual = 0.000251542, No Iterations 1
smoothSolver:  Solving for k, Initial residual = 0.00594446, Final residual = 0.000531441, No Iterations 1
bounding k, min: -0.000288601 max: 10.3288 average: 1.59595
ExecutionTime = 44.8629 s  ClockTime = 48 s

Time = 36s

smoothSolver:  Solving for Ux, Initial residual = 0.00430434, Final residual = 0.000207325, No Iterations 2
smoothSolver:  Solving for Uy, Initial residual = 0.0527346, Final residual = 0.00272706, No Iterations 2
smoothSolver:  Solving for Uz, Initial residual = 0.0923541, Final residual = 0.00287915, No Iterations 2
GAMG:  Solving for p, Initial residual = 0.149277, Final residual = 0.0069797, No Iterations 10
GAMG:  Solving for p, Initial residual = 0.106162, Final residual = 0.00458605, No Iterations 5
GAMG:  Solving for p, Initial residual = 0.0348174, Final residual = 0.00164628, No Iterations 14
time step continuity errors : sum local = 7.13383e-06, global = 1.42735e-06, cumulative = 3.15221e-05
smoothSolver:  Solving for epsilon, Initial residual = 0.0394235, Final residual = 0.000255748, No Iterations 1
smoothSolver:  Solving for k, Initial residual = 0.00573691, Final residual = 0.000521075, No Iterations 1
bounding k, min: -0.0314303 max: 10.1917 average: 1.59626
ExecutionTime = 45.7149 s  ClockTime = 48 s

Time = 37s

smoothSolver:  Solving for Ux, Initial residual = 0.00418738, Final residual = 0.000205793, No Iterations 2
smoothSolver:  Solving for Uy, Initial residual = 0.0506288, Final residual = 0.00271218, No Iterations 2
smoothSolver:  Solving for Uz, Initial residual = 0.0871653, Final residual = 0.00271411, No Iterations 2
GAMG:  Solving for p, Initial residual = 0.135564, Final residual = 0.00650773, No Iterations 8
GAMG:  Solving for p, Initial residual = 0.0816898, Final residual = 0.00393529, No Iterations 5
GAMG:  Solving for p, Initial residual = 0.0270629, Final residual = 0.00128147, No Iterations 12
time step continuity errors : sum local = 5.38895e-06, global = 9.69155e-07, cumulative = 3.24912e-05
smoothSolver:  Solving for epsilon, Initial residual = 0.0401177, Final residual = 0.000260093, No Iterations 1
smoothSolver:  Solving for k, Initial residual = 0.00550389, Final residual = 0.000510202, No Iterations 1
bounding k, min: -0.056887 max: 10.1917 average: 1.59785
ExecutionTime = 46.4987 s  ClockTime = 49 s

Time = 38s

smoothSolver:  Solving for Ux, Initial residual = 0.0042089, Final residual = 0.000205255, No Iterations 2
smoothSolver:  Solving for Uy, Initial residual = 0.0466187, Final residual = 0.00262544, No Iterations 2
smoothSolver:  Solving for Uz, Initial residual = 0.0806244, Final residual = 0.00254782, No Iterations 2
GAMG:  Solving for p, Initial residual = 0.126518, Final residual = 0.00614799, No Iterations 9
GAMG:  Solving for p, Initial residual = 0.0711092, Final residual = 0.00347589, No Iterations 6
GAMG:  Solving for p, Initial residual = 0.0249492, Final residual = 0.00124211, No Iterations 15
time step continuity errors : sum local = 4.8147e-06, global = 8.02665e-07, cumulative = 3.32939e-05
smoothSolver:  Solving for epsilon, Initial residual = 0.0404348, Final residual = 0.000263088, No Iterations 1
smoothSolver:  Solving for k, Initial residual = 0.00543094, Final residual = 0.000505501, No Iterations 1
bounding k, min: -0.0091964 max: 10.1917 average: 1.6001
ExecutionTime = 47.3677 s  ClockTime = 50 s

Time = 39s

smoothSolver:  Solving for Ux, Initial residual = 0.00407202, Final residual = 0.000201106, No Iterations 2
smoothSolver:  Solving for Uy, Initial residual = 0.043541, Final residual = 0.00254459, No Iterations 2
smoothSolver:  Solving for Uz, Initial residual = 0.0786117, Final residual = 0.00256536, No Iterations 2
GAMG:  Solving for p, Initial residual = 0.123034, Final residual = 0.00556796, No Iterations 10
GAMG:  Solving for p, Initial residual = 0.0782703, Final residual = 0.00358071, No Iterations 6
GAMG:  Solving for p, Initial residual = 0.0285669, Final residual = 0.00140067, No Iterations 18
time step continuity errors : sum local = 4.9819e-06, global = 8.2598e-07, cumulative = 3.41199e-05
smoothSolver:  Solving for epsilon, Initial residual = 0.0409622, Final residual = 0.00026764, No Iterations 1
smoothSolver:  Solving for k, Initial residual = 0.00528661, Final residual = 0.000491583, No Iterations 1
bounding k, min: -0.0487863 max: 10.1917 average: 1.60224
ExecutionTime = 48.3059 s  ClockTime = 51 s

Time = 40s

smoothSolver:  Solving for Ux, Initial residual = 0.00383474, Final residual = 0.000192061, No Iterations 2
smoothSolver:  Solving for Uy, Initial residual = 0.0457758, Final residual = 0.00255415, No Iterations 2
smoothSolver:  Solving for Uz, Initial residual = 0.0820523, Final residual = 0.00267461, No Iterations 2
GAMG:  Solving for p, Initial residual = 0.124037, Final residual = 0.00543103, No Iterations 10
GAMG:  Solving for p, Initial residual = 0.0851987, Final residual = 0.00417257, No Iterations 5
GAMG:  Solving for p, Initial residual = 0.030895, Final residual = 0.00154264, No Iterations 17
time step continuity errors : sum local = 5.14588e-06, global = 8.82852e-07, cumulative = 3.50027e-05
smoothSolver:  Solving for epsilon, Initial residual = 0.0411214, Final residual = 0.000269116, No Iterations 1
smoothSolver:  Solving for k, Initial residual = 0.00510805, Final residual = 0.0004805, No Iterations 1
bounding k, min: -0.00658529 max: 10.1917 average: 1.60372
ExecutionTime = 49.2094 s  ClockTime = 52 s

Time = 41s

smoothSolver:  Solving for Ux, Initial residual = 0.00369508, Final residual = 0.000182924, No Iterations 2
smoothSolver:  Solving for Uy, Initial residual = 0.0506295, Final residual = 0.00267826, No Iterations 2
smoothSolver:  Solving for Uz, Initial residual = 0.0851363, Final residual = 0.00270979, No Iterations 2
GAMG:  Solving for p, Initial residual = 0.126676, Final residual = 0.00520455, No Iterations 10
GAMG:  Solving for p, Initial residual = 0.0740141, Final residual = 0.00309345, No Iterations 6
GAMG:  Solving for p, Initial residual = 0.0264958, Final residual = 0.00121051, No Iterations 16
time step continuity errors : sum local = 4.0104e-06, global = 6.85744e-07, cumulative = 3.56885e-05
smoothSolver:  Solving for epsilon, Initial residual = 0.0416194, Final residual = 0.000273083, No Iterations 1
smoothSolver:  Solving for k, Initial residual = 0.00492917, Final residual = 0.000469524, No Iterations 1
bounding k, min: -0.0389876 max: 10.1917 average: 1.6045
ExecutionTime = 50.1127 s  ClockTime = 53 s

Time = 42s

smoothSolver:  Solving for Ux, Initial residual = 0.00354745, Final residual = 0.000174307, No Iterations 2
smoothSolver:  Solving for Uy, Initial residual = 0.0530687, Final residual = 0.00281207, No Iterations 2
smoothSolver:  Solving for Uz, Initial residual = 0.0819198, Final residual = 0.00263614, No Iterations 2
GAMG:  Solving for p, Initial residual = 0.12553, Final residual = 0.00592485, No Iterations 9
GAMG:  Solving for p, Initial residual = 0.0715991, Final residual = 0.00357944, No Iterations 5
GAMG:  Solving for p, Initial residual = 0.0257777, Final residual = 0.00119853, No Iterations 12
time step continuity errors : sum local = 4.09299e-06, global = 6.18713e-07, cumulative = 3.63072e-05
smoothSolver:  Solving for epsilon, Initial residual = 0.0419971, Final residual = 0.000276102, No Iterations 1
smoothSolver:  Solving for k, Initial residual = 0.00474847, Final residual = 0.000456931, No Iterations 1
ExecutionTime = 50.9076 s  ClockTime = 54 s

Time = 43s

smoothSolver:  Solving for Ux, Initial residual = 0.00343138, Final residual = 0.000168529, No Iterations 2
smoothSolver:  Solving for Uy, Initial residual = 0.0518116, Final residual = 0.00286896, No Iterations 2
smoothSolver:  Solving for Uz, Initial residual = 0.0756117, Final residual = 0.00255563, No Iterations 2
GAMG:  Solving for p, Initial residual = 0.120154, Final residual = 0.00580772, No Iterations 9
GAMG:  Solving for p, Initial residual = 0.0742492, Final residual = 0.00347815, No Iterations 4
GAMG:  Solving for p, Initial residual = 0.0245358, Final residual = 0.00111187, No Iterations 10
time step continuity errors : sum local = 3.90482e-06, global = -4.71901e-07, cumulative = 3.58353e-05
smoothSolver:  Solving for epsilon, Initial residual = 0.0425874, Final residual = 0.000280545, No Iterations 1
smoothSolver:  Solving for k, Initial residual = 0.00459393, Final residual = 0.000446463, No Iterations 1
ExecutionTime = 51.6502 s  ClockTime = 54 s

Time = 44s

smoothSolver:  Solving for Ux, Initial residual = 0.00330214, Final residual = 0.000165077, No Iterations 2
smoothSolver:  Solving for Uy, Initial residual = 0.0486505, Final residual = 0.00285452, No Iterations 2
smoothSolver:  Solving for Uz, Initial residual = 0.0725749, Final residual = 0.0024769, No Iterations 2
GAMG:  Solving for p, Initial residual = 0.113574, Final residual = 0.00515529, No Iterations 9
GAMG:  Solving for p, Initial residual = 0.0695602, Final residual = 0.00297071, No Iterations 4
GAMG:  Solving for p, Initial residual = 0.0221388, Final residual = 0.000976412, No Iterations 10
time step continuity errors : sum local = 3.44358e-06, global = -3.21432e-07, cumulative = 3.55138e-05
smoothSolver:  Solving for epsilon, Initial residual = 0.0429913, Final residual = 0.000283853, No Iterations 1
smoothSolver:  Solving for k, Initial residual = 0.00444628, Final residual = 0.000434959, No Iterations 1
bounding k, min: -0.095312 max: 10.3868 average: 1.60642
ExecutionTime = 52.3989 s  ClockTime = 55 s

Time = 45s

smoothSolver:  Solving for Ux, Initial residual = 0.00312807, Final residual = 0.000162845, No Iterations 2
smoothSolver:  Solving for Uy, Initial residual = 0.0475576, Final residual = 0.00282293, No Iterations 2
smoothSolver:  Solving for Uz, Initial residual = 0.0732536, Final residual = 0.00243507, No Iterations 2
GAMG:  Solving for p, Initial residual = 0.106503, Final residual = 0.00511852, No Iterations 8
GAMG:  Solving for p, Initial residual = 0.0613105, Final residual = 0.00230098, No Iterations 5
GAMG:  Solving for p, Initial residual = 0.0197139, Final residual = 0.000896049, No Iterations 8
time step continuity errors : sum local = 3.08472e-06, global = -3.16649e-07, cumulative = 3.51972e-05
smoothSolver:  Solving for epsilon, Initial residual = 0.0434635, Final residual = 0.00028767, No Iterations 1
smoothSolver:  Solving for k, Initial residual = 0.0042643, Final residual = 0.000420654, No Iterations 1
ExecutionTime = 53.108 s  ClockTime = 56 s

Time = 46s

smoothSolver:  Solving for Ux, Initial residual = 0.00297434, Final residual = 0.000159765, No Iterations 2
smoothSolver:  Solving for Uy, Initial residual = 0.0500554, Final residual = 0.00282832, No Iterations 2
smoothSolver:  Solving for Uz, Initial residual = 0.0728488, Final residual = 0.00242314, No Iterations 2
GAMG:  Solving for p, Initial residual = 0.101587, Final residual = 0.00469729, No Iterations 7
GAMG:  Solving for p, Initial residual = 0.0547955, Final residual = 0.00248483, No Iterations 5
GAMG:  Solving for p, Initial residual = 0.0186107, Final residual = 0.000902889, No Iterations 10
time step continuity errors : sum local = 2.96507e-06, global = -4.6142e-07, cumulative = 3.47358e-05
smoothSolver:  Solving for epsilon, Initial residual = 0.0437253, Final residual = 0.000289595, No Iterations 1
smoothSolver:  Solving for k, Initial residual = 0.00410403, Final residual = 0.000406581, No Iterations 1
ExecutionTime = 53.8334 s  ClockTime = 57 s

Time = 47s

smoothSolver:  Solving for Ux, Initial residual = 0.00285271, Final residual = 0.000155145, No Iterations 2
smoothSolver:  Solving for Uy, Initial residual = 0.0524307, Final residual = 0.00285569, No Iterations 2
smoothSolver:  Solving for Uz, Initial residual = 0.0699041, Final residual = 0.00243238, No Iterations 2
GAMG:  Solving for p, Initial residual = 0.0985373, Final residual = 0.00434173, No Iterations 9
GAMG:  Solving for p, Initial residual = 0.055814, Final residual = 0.00215878, No Iterations 6
GAMG:  Solving for p, Initial residual = 0.0198494, Final residual = 0.000941709, No Iterations 12
time step continuity errors : sum local = 2.94952e-06, global = 3.32231e-07, cumulative = 3.5068e-05
smoothSolver:  Solving for epsilon, Initial residual = 0.0440506, Final residual = 0.000292412, No Iterations 1
smoothSolver:  Solving for k, Initial residual = 0.00393807, Final residual = 0.000391942, No Iterations 1
ExecutionTime = 54.6454 s  ClockTime = 57 s

Time = 48s

smoothSolver:  Solving for Ux, Initial residual = 0.0027839, Final residual = 0.000149113, No Iterations 2
smoothSolver:  Solving for Uy, Initial residual = 0.0526842, Final residual = 0.00288374, No Iterations 2
smoothSolver:  Solving for Uz, Initial residual = 0.0673467, Final residual = 0.00241684, No Iterations 2
GAMG:  Solving for p, Initial residual = 0.0961779, Final residual = 0.00471121, No Iterations 9
GAMG:  Solving for p, Initial residual = 0.05578, Final residual = 0.00252821, No Iterations 6
GAMG:  Solving for p, Initial residual = 0.0203539, Final residual = 0.00101125, No Iterations 14
time step continuity errors : sum local = 3.0706e-06, global = 3.94756e-07, cumulative = 3.54628e-05
smoothSolver:  Solving for epsilon, Initial residual = 0.0443299, Final residual = 0.00029436, No Iterations 1
smoothSolver:  Solving for k, Initial residual = 0.00377837, Final residual = 0.00037744, No Iterations 1
bounding k, min: -0.0543673 max: 10.9352 average: 1.61171
ExecutionTime = 55.501 s  ClockTime = 58 s

Time = 49s

smoothSolver:  Solving for Ux, Initial residual = 0.00271702, Final residual = 0.000142963, No Iterations 2
smoothSolver:  Solving for Uy, Initial residual = 0.0507799, Final residual = 0.00289579, No Iterations 2
smoothSolver:  Solving for Uz, Initial residual = 0.065105, Final residual = 0.00238111, No Iterations 2
GAMG:  Solving for p, Initial residual = 0.0939071, Final residual = 0.00417357, No Iterations 9
GAMG:  Solving for p, Initial residual = 0.0559153, Final residual = 0.00230532, No Iterations 6
GAMG:  Solving for p, Initial residual = 0.0202243, Final residual = 0.000984656, No Iterations 14
time step continuity errors : sum local = 2.94804e-06, global = 3.86124e-07, cumulative = 3.58489e-05
smoothSolver:  Solving for epsilon, Initial residual = 0.0446574, Final residual = 0.000296384, No Iterations 1
smoothSolver:  Solving for k, Initial residual = 0.00365252, Final residual = 5.12845e-05, No Iterations 2
ExecutionTime = 56.3626 s  ClockTime = 59 s

Time = 50s

smoothSolver:  Solving for Ux, Initial residual = 0.00259865, Final residual = 0.000137691, No Iterations 2
smoothSolver:  Solving for Uy, Initial residual = 0.0484249, Final residual = 0.00288918, No Iterations 2
smoothSolver:  Solving for Uz, Initial residual = 0.062469, Final residual = 0.00233386, No Iterations 2
GAMG:  Solving for p, Initial residual = 0.0925751, Final residual = 0.00451918, No Iterations 7
GAMG:  Solving for p, Initial residual = 0.0554718, Final residual = 0.00246102, No Iterations 5
GAMG:  Solving for p, Initial residual = 0.0198132, Final residual = 0.000946985, No Iterations 10
time step continuity errors : sum local = 2.81035e-06, global = 3.67819e-07, cumulative = 3.62167e-05
smoothSolver:  Solving for epsilon, Initial residual = 0.0450135, Final residual = 0.00030103, No Iterations 1
smoothSolver:  Solving for k, Initial residual = 0.00353026, Final residual = 0.000352648, No Iterations 1
ExecutionTime = 57.0927 s  ClockTime = 60 s

Time = 51s

smoothSolver:  Solving for Ux, Initial residual = 0.00244467, Final residual = 0.000133691, No Iterations 2
smoothSolver:  Solving for Uy, Initial residual = 0.0469927, Final residual = 0.0028708, No Iterations 2
smoothSolver:  Solving for Uz, Initial residual = 0.0605802, Final residual = 0.00228691, No Iterations 2
GAMG:  Solving for p, Initial residual = 0.090021, Final residual = 0.00435667, No Iterations 8
GAMG:  Solving for p, Initial residual = 0.0564024, Final residual = 0.00245378, No Iterations 4
GAMG:  Solving for p, Initial residual = 0.0185002, Final residual = 0.000857301, No Iterations 7
time step continuity errors : sum local = 2.5194e-06, global = -3.35448e-07, cumulative = 3.58813e-05
smoothSolver:  Solving for epsilon, Initial residual = 0.0453668, Final residual = 0.000301455, No Iterations 1
smoothSolver:  Solving for k, Initial residual = 0.00341272, Final residual = 0.000339997, No Iterations 1
bounding k, min: -0.0359251 max: 11.2168 average: 1.61322
ExecutionTime = 57.7761 s  ClockTime = 61 s

Time = 52s

smoothSolver:  Solving for Ux, Initial residual = 0.00228114, Final residual = 0.000130088, No Iterations 2
smoothSolver:  Solving for Uy, Initial residual = 0.0458828, Final residual = 0.00284759, No Iterations 2
smoothSolver:  Solving for Uz, Initial residual = 0.0607933, Final residual = 0.00224198, No Iterations 2
GAMG:  Solving for p, Initial residual = 0.0857729, Final residual = 0.00401747, No Iterations 7
GAMG:  Solving for p, Initial residual = 0.0539237, Final residual = 0.00208502, No Iterations 4
GAMG:  Solving for p, Initial residual = 0.0172141, Final residual = 0.000837605, No Iterations 6
time step continuity errors : sum local = 2.3953e-06, global = -2.14505e-07, cumulative = 3.56667e-05
smoothSolver:  Solving for epsilon, Initial residual = 0.0457702, Final residual = 0.000303861, No Iterations 1
smoothSolver:  Solving for k, Initial residual = 0.00328169, Final residual = 4.65192e-05, No Iterations 2
ExecutionTime = 58.4228 s  ClockTime = 61 s

Time = 53s

smoothSolver:  Solving for Ux, Initial residual = 0.00215685, Final residual = 0.000126274, No Iterations 2
smoothSolver:  Solving for Uy, Initial residual = 0.0445665, Final residual = 0.00281829, No Iterations 2
smoothSolver:  Solving for Uz, Initial residual = 0.0593834, Final residual = 0.00219082, No Iterations 2
GAMG:  Solving for p, Initial residual = 0.0805791, Final residual = 0.00402668, No Iterations 6
GAMG:  Solving for p, Initial residual = 0.0511514, Final residual = 0.00215224, No Iterations 4
GAMG:  Solving for p, Initial residual = 0.0169989, Final residual = 0.000837465, No Iterations 7
time step continuity errors : sum local = 2.32921e-06, global = -2.82986e-07, cumulative = 3.53838e-05
smoothSolver:  Solving for epsilon, Initial residual = 0.0461231, Final residual = 0.000308021, No Iterations 1
smoothSolver:  Solving for k, Initial residual = 0.00314096, Final residual = 4.52286e-05, No Iterations 2
bounding k, min: -0.0744387 max: 11.343 average: 1.61399
ExecutionTime = 59.0769 s  ClockTime = 62 s

Time = 54s

smoothSolver:  Solving for Ux, Initial residual = 0.00206018, Final residual = 0.000122072, No Iterations 2
smoothSolver:  Solving for Uy, Initial residual = 0.0434853, Final residual = 0.00279303, No Iterations 2
smoothSolver:  Solving for Uz, Initial residual = 0.0557507, Final residual = 0.00213564, No Iterations 2
GAMG:  Solving for p, Initial residual = 0.076955, Final residual = 0.0037751, No Iterations 7
GAMG:  Solving for p, Initial residual = 0.0506928, Final residual = 0.00227137, No Iterations 4
GAMG:  Solving for p, Initial residual = 0.0172827, Final residual = 0.00079326, No Iterations 10
time step continuity errors : sum local = 2.13438e-06, global = 2.26499e-07, cumulative = 3.56103e-05
smoothSolver:  Solving for epsilon, Initial residual = 0.0464293, Final residual = 0.000309888, No Iterations 1
smoothSolver:  Solving for k, Initial residual = 0.00299887, Final residual = 4.31439e-05, No Iterations 2
ExecutionTime = 59.7986 s  ClockTime = 63 s

Time = 55s

smoothSolver:  Solving for Ux, Initial residual = 0.0019904, Final residual = 0.000117578, No Iterations 2
smoothSolver:  Solving for Uy, Initial residual = 0.0432616, Final residual = 0.00278433, No Iterations 2
smoothSolver:  Solving for Uz, Initial residual = 0.0515731, Final residual = 0.00208813, No Iterations 2
GAMG:  Solving for p, Initial residual = 0.0746962, Final residual = 0.00342109, No Iterations 9
GAMG:  Solving for p, Initial residual = 0.0509122, Final residual = 0.00228142, No Iterations 4
GAMG:  Solving for p, Initial residual = 0.0173132, Final residual = 0.000784611, No Iterations 12
time step continuity errors : sum local = 2.05337e-06, global = 2.12078e-07, cumulative = 3.58223e-05
smoothSolver:  Solving for epsilon, Initial residual = 0.0467103, Final residual = 0.000310528, No Iterations 1
smoothSolver:  Solving for k, Initial residual = 0.00287218, Final residual = 4.13643e-05, No Iterations 2
bounding k, min: -0.0780841 max: 11.4101 average: 1.61442
ExecutionTime = 60.5925 s  ClockTime = 63 s

Time = 56s

smoothSolver:  Solving for Ux, Initial residual = 0.001913, Final residual = 0.000112952, No Iterations 2
smoothSolver:  Solving for Uy, Initial residual = 0.0440013, Final residual = 0.00279905, No Iterations 2
smoothSolver:  Solving for Uz, Initial residual = 0.0501271, Final residual = 0.00205986, No Iterations 2
GAMG:  Solving for p, Initial residual = 0.0732644, Final residual = 0.003289, No Iterations 9
GAMG:  Solving for p, Initial residual = 0.0495516, Final residual = 0.00230833, No Iterations 4
GAMG:  Solving for p, Initial residual = 0.016856, Final residual = 0.000764913, No Iterations 14
time step continuity errors : sum local = 1.96978e-06, global = 2.36791e-07, cumulative = 3.60591e-05
smoothSolver:  Solving for epsilon, Initial residual = 0.0469912, Final residual = 0.000311759, No Iterations 1
smoothSolver:  Solving for k, Initial residual = 0.00276845, Final residual = 3.97563e-05, No Iterations 2
ExecutionTime = 61.4306 s  ClockTime = 64 s

Time = 57s

smoothSolver:  Solving for Ux, Initial residual = 0.00182837, Final residual = 0.000108593, No Iterations 2
smoothSolver:  Solving for Uy, Initial residual = 0.0449409, Final residual = 0.00281438, No Iterations 2
smoothSolver:  Solving for Uz, Initial residual = 0.0500719, Final residual = 0.00206857, No Iterations 2
GAMG:  Solving for p, Initial residual = 0.0708132, Final residual = 0.00310273, No Iterations 8
GAMG:  Solving for p, Initial residual = 0.0489026, Final residual = 0.00194885, No Iterations 5
GAMG:  Solving for p, Initial residual = 0.0173108, Final residual = 0.000818089, No Iterations 12
time step continuity errors : sum local = 2.06945e-06, global = 2.42752e-07, cumulative = 3.63019e-05
smoothSolver:  Solving for epsilon, Initial residual = 0.0472719, Final residual = 0.000313704, No Iterations 1
smoothSolver:  Solving for k, Initial residual = 0.00268097, Final residual = 3.85791e-05, No Iterations 2
bounding k, min: -0.0748481 max: 11.4327 average: 1.61443
ExecutionTime = 62.2418 s  ClockTime = 65 s

Time = 58s

smoothSolver:  Solving for Ux, Initial residual = 0.00174694, Final residual = 0.000104756, No Iterations 2
smoothSolver:  Solving for Uy, Initial residual = 0.0449517, Final residual = 0.00280771, No Iterations 2
smoothSolver:  Solving for Uz, Initial residual = 0.049745, Final residual = 0.00208026, No Iterations 2
GAMG:  Solving for p, Initial residual = 0.0669164, Final residual = 0.00264719, No Iterations 9
GAMG:  Solving for p, Initial residual = 0.0483638, Final residual = 0.00212847, No Iterations 4
GAMG:  Solving for p, Initial residual = 0.0165583, Final residual = 0.000811088, No Iterations 11
time step continuity errors : sum local = 2.01893e-06, global = 3.4821e-07, cumulative = 3.66501e-05
smoothSolver:  Solving for epsilon, Initial residual = 0.0475372, Final residual = 0.00031577, No Iterations 1
smoothSolver:  Solving for k, Initial residual = 0.00260773, Final residual = 3.72951e-05, No Iterations 2
ExecutionTime = 63.0078 s  ClockTime = 66 s

Time = 59s

smoothSolver:  Solving for Ux, Initial residual = 0.00167771, Final residual = 0.000101359, No Iterations 2
smoothSolver:  Solving for Uy, Initial residual = 0.0439085, Final residual = 0.00277457, No Iterations 2
smoothSolver:  Solving for Uz, Initial residual = 0.0474152, Final residual = 0.00204754, No Iterations 2
GAMG:  Solving for p, Initial residual = 0.0634815, Final residual = 0.0026839, No Iterations 9
GAMG:  Solving for p, Initial residual = 0.0460883, Final residual = 0.0019367, No Iterations 4
GAMG:  Solving for p, Initial residual = 0.015341, Final residual = 0.000766205, No Iterations 11
time step continuity errors : sum local = 1.86608e-06, global = 3.45988e-07, cumulative = 3.69961e-05
smoothSolver:  Solving for epsilon, Initial residual = 0.0478628, Final residual = 0.00031895, No Iterations 1
smoothSolver:  Solving for k, Initial residual = 0.00255487, Final residual = 3.6355e-05, No Iterations 2
bounding k, min: -0.0938977 max: 11.416 average: 1.61369
ExecutionTime = 63.7776 s  ClockTime = 67 s

Time = 60s

smoothSolver:  Solving for Ux, Initial residual = 0.00163027, Final residual = 9.81358e-05, No Iterations 2
smoothSolver:  Solving for Uy, Initial residual = 0.0424951, Final residual = 0.00272479, No Iterations 2
smoothSolver:  Solving for Uz, Initial residual = 0.0445845, Final residual = 0.00199094, No Iterations 2
GAMG:  Solving for p, Initial residual = 0.0607997, Final residual = 0.00257772, No Iterations 9
GAMG:  Solving for p, Initial residual = 0.0445113, Final residual = 0.00184078, No Iterations 4
GAMG:  Solving for p, Initial residual = 0.0147026, Final residual = 0.0006874, No Iterations 10
time step continuity errors : sum local = 1.63309e-06, global = -2.30114e-07, cumulative = 3.6766e-05
smoothSolver:  Solving for epsilon, Initial residual = 0.0481836, Final residual = 0.000321542, No Iterations 1
smoothSolver:  Solving for k, Initial residual = 0.00251035, Final residual = 3.5401e-05, No Iterations 2
ExecutionTime = 64.5327 s  ClockTime = 67 s

Time = 61s

smoothSolver:  Solving for Ux, Initial residual = 0.00159938, Final residual = 9.48178e-05, No Iterations 2
smoothSolver:  Solving for Uy, Initial residual = 0.0414597, Final residual = 0.00267289, No Iterations 2
smoothSolver:  Solving for Uz, Initial residual = 0.042647, Final residual = 0.00192946, No Iterations 2
GAMG:  Solving for p, Initial residual = 0.057611, Final residual = 0.00279712, No Iterations 8
GAMG:  Solving for p, Initial residual = 0.0437017, Final residual = 0.00198165, No Iterations 4
GAMG:  Solving for p, Initial residual = 0.0149282, Final residual = 0.000673764, No Iterations 10
time step continuity errors : sum local = 1.56751e-06, global = 2.14812e-07, cumulative = 3.69808e-05
smoothSolver:  Solving for epsilon, Initial residual = 0.0485011, Final residual = 0.000324405, No Iterations 1
smoothSolver:  Solving for k, Initial residual = 0.00246399, Final residual = 3.4413e-05, No Iterations 2
bounding k, min: -0.0552722 max: 11.3543 average: 1.61229
ExecutionTime = 65.273 s  ClockTime = 68 s

Time = 62s

smoothSolver:  Solving for Ux, Initial residual = 0.00158312, Final residual = 9.13221e-05, No Iterations 2
smoothSolver:  Solving for Uy, Initial residual = 0.041156, Final residual = 0.00263221, No Iterations 2
smoothSolver:  Solving for Uz, Initial residual = 0.04105, Final residual = 0.00187268, No Iterations 2
GAMG:  Solving for p, Initial residual = 0.0535992, Final residual = 0.00244922, No Iterations 9
GAMG:  Solving for p, Initial residual = 0.0450973, Final residual = 0.00183193, No Iterations 4
GAMG:  Solving for p, Initial residual = 0.01519, Final residual = 0.000718968, No Iterations 10
time step continuity errors : sum local = 1.63845e-06, global = 1.98025e-07, cumulative = 3.71788e-05
smoothSolver:  Solving for epsilon, Initial residual = 0.0488391, Final residual = 0.000327186, No Iterations 1
smoothSolver:  Solving for k, Initial residual = 0.00241912, Final residual = 0.000240884, No Iterations 1
ExecutionTime = 66.0176 s  ClockTime = 69 s

Time = 63s

smoothSolver:  Solving for Ux, Initial residual = 0.00156573, Final residual = 8.78092e-05, No Iterations 2
smoothSolver:  Solving for Uy, Initial residual = 0.0410944, Final residual = 0.00260627, No Iterations 2
smoothSolver:  Solving for Uz, Initial residual = 0.0397649, Final residual = 0.0018197, No Iterations 2
GAMG:  Solving for p, Initial residual = 0.0505414, Final residual = 0.00218024, No Iterations 11
GAMG:  Solving for p, Initial residual = 0.0454131, Final residual = 0.00178165, No Iterations 4
GAMG:  Solving for p, Initial residual = 0.0151483, Final residual = 0.000676106, No Iterations 12
time step continuity errors : sum local = 1.51467e-06, global = 1.79508e-07, cumulative = 3.73583e-05
smoothSolver:  Solving for epsilon, Initial residual = 0.049158, Final residual = 0.000328584, No Iterations 1
smoothSolver:  Solving for k, Initial residual = 0.00238938, Final residual = 0.000236646, No Iterations 1
bounding k, min: -0.0957122 max: 11.2875 average: 1.61074
ExecutionTime = 66.8381 s  ClockTime = 70 s

Time = 64s

smoothSolver:  Solving for Ux, Initial residual = 0.00155194, Final residual = 8.44065e-05, No Iterations 2
smoothSolver:  Solving for Uy, Initial residual = 0.0409315, Final residual = 0.00258547, No Iterations 2
smoothSolver:  Solving for Uz, Initial residual = 0.0382632, Final residual = 0.00177005, No Iterations 2
GAMG:  Solving for p, Initial residual = 0.048851, Final residual = 0.00242969, No Iterations 10
GAMG:  Solving for p, Initial residual = 0.0435074, Final residual = 0.00204353, No Iterations 4
GAMG:  Solving for p, Initial residual = 0.015084, Final residual = 0.000678802, No Iterations 11
time step continuity errors : sum local = 1.49732e-06, global = 2.2359e-07, cumulative = 3.75819e-05
smoothSolver:  Solving for epsilon, Initial residual = 0.0494715, Final residual = 0.000330877, No Iterations 1
smoothSolver:  Solving for k, Initial residual = 0.0023687, Final residual = 0.000233727, No Iterations 1
ExecutionTime = 67.6201 s  ClockTime = 70 s

Time = 65s

smoothSolver:  Solving for Ux, Initial residual = 0.00153605, Final residual = 8.13444e-05, No Iterations 2
smoothSolver:  Solving for Uy, Initial residual = 0.0404185, Final residual = 0.00256043, No Iterations 2
smoothSolver:  Solving for Uz, Initial residual = 0.0363667, Final residual = 0.00171317, No Iterations 2
GAMG:  Solving for p, Initial residual = 0.0469578, Final residual = 0.00227005, No Iterations 9
GAMG:  Solving for p, Initial residual = 0.041137, Final residual = 0.00176447, No Iterations 4
GAMG:  Solving for p, Initial residual = 0.0137539, Final residual = 0.000609584, No Iterations 14
time step continuity errors : sum local = 1.33678e-06, global = 1.81839e-07, cumulative = 3.77637e-05
smoothSolver:  Solving for epsilon, Initial residual = 0.04982, Final residual = 0.000334096, No Iterations 1
smoothSolver:  Solving for k, Initial residual = 0.00234811, Final residual = 0.000230147, No Iterations 1
bounding k, min: -0.0443549 max: 11.2133 average: 1.60883
ExecutionTime = 68.4552 s  ClockTime = 71 s

Time = 66s

smoothSolver:  Solving for Ux, Initial residual = 0.00151521, Final residual = 7.85607e-05, No Iterations 2
smoothSolver:  Solving for Uy, Initial residual = 0.0395961, Final residual = 0.00252522, No Iterations 2
smoothSolver:  Solving for Uz, Initial residual = 0.034783, Final residual = 0.00164695, No Iterations 2
GAMG:  Solving for p, Initial residual = 0.0440724, Final residual = 0.00205916, No Iterations 9
GAMG:  Solving for p, Initial residual = 0.0379283, Final residual = 0.00170729, No Iterations 4
GAMG:  Solving for p, Initial residual = 0.0131693, Final residual = 0.000622681, No Iterations 11
time step continuity errors : sum local = 1.34593e-06, global = 2.29392e-07, cumulative = 3.79931e-05
smoothSolver:  Solving for epsilon, Initial residual = 0.0501454, Final residual = 0.000337138, No Iterations 1
smoothSolver:  Solving for k, Initial residual = 0.0023135, Final residual = 0.000225198, No Iterations 1
ExecutionTime = 69.2312 s  ClockTime = 72 s

Time = 67s

smoothSolver:  Solving for Ux, Initial residual = 0.00148973, Final residual = 7.59648e-05, No Iterations 2
smoothSolver:  Solving for Uy, Initial residual = 0.0386296, Final residual = 0.00247757, No Iterations 2
smoothSolver:  Solving for Uz, Initial residual = 0.0331327, Final residual = 0.00157802, No Iterations 2
GAMG:  Solving for p, Initial residual = 0.0406143, Final residual = 0.00196403, No Iterations 9
GAMG:  Solving for p, Initial residual = 0.035413, Final residual = 0.00155911, No Iterations 4
GAMG:  Solving for p, Initial residual = 0.0121116, Final residual = 0.000573805, No Iterations 11
time step continuity errors : sum local = 1.22272e-06, global = 2.12706e-07, cumulative = 3.82058e-05
smoothSolver:  Solving for epsilon, Initial residual = 0.0505493, Final residual = 0.00034043, No Iterations 1
smoothSolver:  Solving for k, Initial residual = 0.00227303, Final residual = 0.000220043, No Iterations 1
bounding k, min: -0.0656553 max: 11.1291 average: 1.60619
ExecutionTime = 70.0085 s  ClockTime = 73 s

Time = 68s

smoothSolver:  Solving for Ux, Initial residual = 0.00146183, Final residual = 7.33818e-05, No Iterations 2
smoothSolver:  Solving for Uy, Initial residual = 0.0378017, Final residual = 0.00242562, No Iterations 2
smoothSolver:  Solving for Uz, Initial residual = 0.031545, Final residual = 0.00151463, No Iterations 2
GAMG:  Solving for p, Initial residual = 0.0379114, Final residual = 0.00181345, No Iterations 9
GAMG:  Solving for p, Initial residual = 0.0342593, Final residual = 0.00170962, No Iterations 3
GAMG:  Solving for p, Initial residual = 0.0113197, Final residual = 0.000546748, No Iterations 10
time step continuity errors : sum local = 1.14725e-06, global = 1.5575e-07, cumulative = 3.83616e-05
smoothSolver:  Solving for epsilon, Initial residual = 0.0508909, Final residual = 0.000342716, No Iterations 1
smoothSolver:  Solving for k, Initial residual = 0.00222391, Final residual = 0.000213955, No Iterations 1
ExecutionTime = 70.7383 s  ClockTime = 74 s

Time = 69s

smoothSolver:  Solving for Ux, Initial residual = 0.00143298, Final residual = 7.08581e-05, No Iterations 2
smoothSolver:  Solving for Uy, Initial residual = 0.0370797, Final residual = 0.00237839, No Iterations 2
smoothSolver:  Solving for Uz, Initial residual = 0.0301842, Final residual = 0.00145295, No Iterations 2
GAMG:  Solving for p, Initial residual = 0.0359649, Final residual = 0.00172937, No Iterations 9
GAMG:  Solving for p, Initial residual = 0.0340413, Final residual = 0.00161581, No Iterations 3
GAMG:  Solving for p, Initial residual = 0.0111197, Final residual = 0.000503137, No Iterations 10
time step continuity errors : sum local = 1.03995e-06, global = 1.2607e-07, cumulative = 3.84877e-05
smoothSolver:  Solving for epsilon, Initial residual = 0.051299, Final residual = 0.000345098, No Iterations 1
smoothSolver:  Solving for k, Initial residual = 0.00217391, Final residual = 0.000207797, No Iterations 1
bounding k, min: -0.0234672 max: 11.0419 average: 1.6031
ExecutionTime = 71.4712 s  ClockTime = 74 s

Time = 70s

smoothSolver:  Solving for Ux, Initial residual = 0.0014046, Final residual = 6.84151e-05, No Iterations 2
smoothSolver:  Solving for Uy, Initial residual = 0.0363976, Final residual = 0.00233671, No Iterations 2
smoothSolver:  Solving for Uz, Initial residual = 0.0290194, Final residual = 0.00139177, No Iterations 2
GAMG:  Solving for p, Initial residual = 0.0337826, Final residual = 0.0015702, No Iterations 9
GAMG:  Solving for p, Initial residual = 0.0338754, Final residual = 0.00163731, No Iterations 3
GAMG:  Solving for p, Initial residual = 0.0110877, Final residual = 0.000533441, No Iterations 9
time step continuity errors : sum local = 1.09016e-06, global = 1.48886e-07, cumulative = 3.86365e-05
smoothSolver:  Solving for epsilon, Initial residual = 0.0517001, Final residual = 0.00034751, No Iterations 1
smoothSolver:  Solving for k, Initial residual = 0.00211622, Final residual = 0.000200385, No Iterations 1
ExecutionTime = 72.1806 s  ClockTime = 75 s

Time = 71s

smoothSolver:  Solving for Ux, Initial residual = 0.0013752, Final residual = 6.60705e-05, No Iterations 2
smoothSolver:  Solving for Uy, Initial residual = 0.0357051, Final residual = 0.00229996, No Iterations 2
smoothSolver:  Solving for Uz, Initial residual = 0.0275428, Final residual = 0.00132732, No Iterations 2
GAMG:  Solving for p, Initial residual = 0.0313975, Final residual = 0.00136668, No Iterations 11
GAMG:  Solving for p, Initial residual = 0.0335918, Final residual = 0.00157936, No Iterations 3
GAMG:  Solving for p, Initial residual = 0.0109719, Final residual = 0.000510869, No Iterations 9
time step continuity errors : sum local = 1.0339e-06, global = 1.40813e-07, cumulative = 3.87774e-05
smoothSolver:  Solving for epsilon, Initial residual = 0.0521817, Final residual = 0.00035088, No Iterations 1
smoothSolver:  Solving for k, Initial residual = 0.00205732, Final residual = 0.000193001, No Iterations 1
bounding k, min: -0.0346851 max: 10.9527 average: 1.59984
ExecutionTime = 72.9305 s  ClockTime = 76 s

Time = 72s

smoothSolver:  Solving for Ux, Initial residual = 0.00134294, Final residual = 6.38658e-05, No Iterations 2
smoothSolver:  Solving for Uy, Initial residual = 0.0349912, Final residual = 0.00226214, No Iterations 2
smoothSolver:  Solving for Uz, Initial residual = 0.0261131, Final residual = 0.00126911, No Iterations 2
GAMG:  Solving for p, Initial residual = 0.029595, Final residual = 0.00132007, No Iterations 11
GAMG:  Solving for p, Initial residual = 0.032173, Final residual = 0.00151457, No Iterations 3
GAMG:  Solving for p, Initial residual = 0.010551, Final residual = 0.000496836, No Iterations 9
time step continuity errors : sum local = 9.97369e-07, global = 1.36791e-07, cumulative = 3.89141e-05
smoothSolver:  Solving for epsilon, Initial residual = 0.0526094, Final residual = 0.000353702, No Iterations 1
smoothSolver:  Solving for k, Initial residual = 0.00199104, Final residual = 0.000185286, No Iterations 1
ExecutionTime = 73.6733 s  ClockTime = 76 s

Time = 73s

smoothSolver:  Solving for Ux, Initial residual = 0.00130393, Final residual = 6.17826e-05, No Iterations 2
smoothSolver:  Solving for Uy, Initial residual = 0.0342032, Final residual = 0.0022181, No Iterations 2
smoothSolver:  Solving for Uz, Initial residual = 0.024702, Final residual = 0.00122429, No Iterations 2
GAMG:  Solving for p, Initial residual = 0.0284254, Final residual = 0.00130866, No Iterations 10
GAMG:  Solving for p, Initial residual = 0.0304643, Final residual = 0.00136033, No Iterations 3
GAMG:  Solving for p, Initial residual = 0.00997433, Final residual = 0.000476248, No Iterations 8
time step continuity errors : sum local = 9.49077e-07, global = 1.10085e-07, cumulative = 3.90242e-05
smoothSolver:  Solving for epsilon, Initial residual = 0.0530599, Final residual = 0.000356699, No Iterations 1
smoothSolver:  Solving for k, Initial residual = 0.00192411, Final residual = 0.000178413, No Iterations 1
bounding k, min: -0.0131573 max: 10.8614 average: 1.59651
ExecutionTime = 74.3899 s  ClockTime = 77 s

Time = 74s

smoothSolver:  Solving for Ux, Initial residual = 0.00125788, Final residual = 5.9824e-05, No Iterations 2
smoothSolver:  Solving for Uy, Initial residual = 0.0333981, Final residual = 0.0021671, No Iterations 2
smoothSolver:  Solving for Uz, Initial residual = 0.0236065, Final residual = 0.0011888, No Iterations 2
GAMG:  Solving for p, Initial residual = 0.0267366, Final residual = 0.00127653, No Iterations 10
GAMG:  Solving for p, Initial residual = 0.0281996, Final residual = 0.0013381, No Iterations 3
GAMG:  Solving for p, Initial residual = 0.00921949, Final residual = 0.000434573, No Iterations 9
time step continuity errors : sum local = 8.60304e-07, global = 1.21344e-07, cumulative = 3.91456e-05
smoothSolver:  Solving for epsilon, Initial residual = 0.0534649, Final residual = 0.000359171, No Iterations 1
smoothSolver:  Solving for k, Initial residual = 0.00184935, Final residual = 0.000171041, No Iterations 1
ExecutionTime = 75.115 s  ClockTime = 78 s

Time = 75s

smoothSolver:  Solving for Ux, Initial residual = 0.0012085, Final residual = 5.79686e-05, No Iterations 2
smoothSolver:  Solving for Uy, Initial residual = 0.0326608, Final residual = 0.00211265, No Iterations 2
smoothSolver:  Solving for Uz, Initial residual = 0.0228, Final residual = 0.00115395, No Iterations 2
GAMG:  Solving for p, Initial residual = 0.0248564, Final residual = 0.00116167, No Iterations 10
GAMG:  Solving for p, Initial residual = 0.0263831, Final residual = 0.00124026, No Iterations 3
GAMG:  Solving for p, Initial residual = 0.00855945, Final residual = 0.00038156, No Iterations 9
time step continuity errors : sum local = 7.48496e-07, global = 1.05511e-07, cumulative = 3.92511e-05
smoothSolver:  Solving for epsilon, Initial residual = 0.0538019, Final residual = 0.00036051, No Iterations 1
smoothSolver:  Solving for k, Initial residual = 0.00176751, Final residual = 0.000163419, No Iterations 1
bounding k, min: -0.02056 max: 10.7673 average: 1.5931
ExecutionTime = 75.8562 s  ClockTime = 79 s

Time = 76s

smoothSolver:  Solving for Ux, Initial residual = 0.00115745, Final residual = 5.61767e-05, No Iterations 2
smoothSolver:  Solving for Uy, Initial residual = 0.0320148, Final residual = 0.00205696, No Iterations 2
smoothSolver:  Solving for Uz, Initial residual = 0.0220442, Final residual = 0.00111968, No Iterations 2
GAMG:  Solving for p, Initial residual = 0.0233581, Final residual = 0.0010203, No Iterations 10
GAMG:  Solving for p, Initial residual = 0.0251947, Final residual = 0.00117684, No Iterations 3
GAMG:  Solving for p, Initial residual = 0.00817534, Final residual = 0.000396847, No Iterations 7
time step continuity errors : sum local = 7.70383e-07, global = 9.64748e-08, cumulative = 3.93476e-05
smoothSolver:  Solving for epsilon, Initial residual = 0.0541521, Final residual = 0.00036282, No Iterations 1
smoothSolver:  Solving for k, Initial residual = 0.00168482, Final residual = 0.000155992, No Iterations 1
ExecutionTime = 76.5913 s  ClockTime = 79 s

Time = 77s

smoothSolver:  Solving for Ux, Initial residual = 0.00110599, Final residual = 5.44209e-05, No Iterations 2
smoothSolver:  Solving for Uy, Initial residual = 0.0314625, Final residual = 0.00200298, No Iterations 2
smoothSolver:  Solving for Uz, Initial residual = 0.0212327, Final residual = 0.00108754, No Iterations 2
GAMG:  Solving for p, Initial residual = 0.0221433, Final residual = 0.000936225, No Iterations 10
GAMG:  Solving for p, Initial residual = 0.0246444, Final residual = 0.00116581, No Iterations 3
GAMG:  Solving for p, Initial residual = 0.00807038, Final residual = 0.000345696, No Iterations 7
time step continuity errors : sum local = 6.64371e-07, global = 7.75358e-08, cumulative = 3.94251e-05
[...]
smoothSolver:  Solving for epsilon, Initial residual = 0.0602456, Final residual = 0.000391091, No Iterations 1
smoothSolver:  Solving for k, Initial residual = 7.36288e-07, Final residual = 8.3105e-08, No Iterations 1
bounding k, min: -0.0349925 max: 10.1917 average: 1.55597
ExecutionTime = 596.03 s  ClockTime = 604 s

Time = 982s

smoothSolver:  Solving for Ux, Initial residual = 1.13685e-07, Final residual = 7.86259e-09, No Iterations 1
smoothSolver:  Solving for Uy, Initial residual = 3.24547e-06, Final residual = 8.02192e-08, No Iterations 2
smoothSolver:  Solving for Uz, Initial residual = 7.05499e-06, Final residual = 6.52708e-07, No Iterations 1
GAMG:  Solving for p, Initial residual = 6.8174e-06, Final residual = 7.33515e-07, No Iterations 3
GAMG:  Solving for p, Initial residual = 4.24417e-06, Final residual = 7.21374e-07, No Iterations 1
GAMG:  Solving for p, Initial residual = 1.62941e-06, Final residual = 5.26675e-07, No Iterations 1
time step continuity errors : sum local = 9.61308e-10, global = -3.58282e-12, cumulative = 3.96273e-05
smoothSolver:  Solving for epsilon, Initial residual = 0.0602458, Final residual = 0.000391088, No Iterations 1
smoothSolver:  Solving for k, Initial residual = 7.72648e-07, Final residual = 8.4934e-08, No Iterations 1
ExecutionTime = 596.54 s  ClockTime = 605 s

Time = 983s

smoothSolver:  Solving for Ux, Initial residual = 1.10294e-07, Final residual = 7.93166e-09, No Iterations 1
smoothSolver:  Solving for Uy, Initial residual = 3.30875e-06, Final residual = 7.55908e-08, No Iterations 2
smoothSolver:  Solving for Uz, Initial residual = 7.19704e-06, Final residual = 6.62279e-07, No Iterations 1
GAMG:  Solving for p, Initial residual = 6.72898e-06, Final residual = 7.52003e-07, No Iterations 3
GAMG:  Solving for p, Initial residual = 4.17832e-06, Final residual = 7.27974e-07, No Iterations 1
GAMG:  Solving for p, Initial residual = 1.61258e-06, Final residual = 5.27266e-07, No Iterations 1
time step continuity errors : sum local = 9.62373e-10, global = -4.58278e-12, cumulative = 3.96273e-05
smoothSolver:  Solving for epsilon, Initial residual = 0.0602456, Final residual = 0.000391092, No Iterations 1
smoothSolver:  Solving for k, Initial residual = 7.3625e-07, Final residual = 8.29361e-08, No Iterations 1
bounding k, min: -0.0352904 max: 10.1917 average: 1.55597
ExecutionTime = 597.06 s  ClockTime = 605 s

Time = 984s

smoothSolver:  Solving for Ux, Initial residual = 1.08949e-07, Final residual = 7.7931e-09, No Iterations 1
smoothSolver:  Solving for Uy, Initial residual = 3.4234e-06, Final residual = 7.87747e-08, No Iterations 2
smoothSolver:  Solving for Uz, Initial residual = 7.14111e-06, Final residual = 6.45674e-07, No Iterations 1
GAMG:  Solving for p, Initial residual = 6.74524e-06, Final residual = 7.86775e-07, No Iterations 3
GAMG:  Solving for p, Initial residual = 4.29961e-06, Final residual = 7.56051e-07, No Iterations 1
GAMG:  Solving for p, Initial residual = 1.64659e-06, Final residual = 5.60492e-07, No Iterations 1
time step continuity errors : sum local = 1.02303e-09, global = -4.32323e-12, cumulative = 3.96273e-05
smoothSolver:  Solving for epsilon, Initial residual = 0.0602458, Final residual = 0.00039109, No Iterations 1
smoothSolver:  Solving for k, Initial residual = 7.71695e-07, Final residual = 8.5048e-08, No Iterations 1
ExecutionTime = 597.57 s  ClockTime = 606 s

Time = 985s

smoothSolver:  Solving for Ux, Initial residual = 1.07627e-07, Final residual = 7.76096e-09, No Iterations 1
smoothSolver:  Solving for Uy, Initial residual = 3.4644e-06, Final residual = 7.63869e-08, No Iterations 2
smoothSolver:  Solving for Uz, Initial residual = 7.26922e-06, Final residual = 6.76718e-07, No Iterations 1
GAMG:  Solving for p, Initial residual = 6.81002e-06, Final residual = 7.7994e-07, No Iterations 3
GAMG:  Solving for p, Initial residual = 4.13201e-06, Final residual = 7.46299e-07, No Iterations 1
GAMG:  Solving for p, Initial residual = 1.60634e-06, Final residual = 5.41328e-07, No Iterations 1
time step continuity errors : sum local = 9.88039e-10, global = -2.55514e-12, cumulative = 3.96273e-05
smoothSolver:  Solving for epsilon, Initial residual = 0.0602456, Final residual = 0.00039109, No Iterations 1
smoothSolver:  Solving for k, Initial residual = 7.33916e-07, Final residual = 8.27717e-08, No Iterations 1
bounding k, min: -0.0350855 max: 10.1917 average: 1.55597
ExecutionTime = 598.09 s  ClockTime = 606 s

Time = 986s

smoothSolver:  Solving for Ux, Initial residual = 1.05216e-07, Final residual = 7.66681e-09, No Iterations 1
smoothSolver:  Solving for Uy, Initial residual = 3.42211e-06, Final residual = 7.65351e-08, No Iterations 2
smoothSolver:  Solving for Uz, Initial residual = 7.11495e-06, Final residual = 6.44388e-07, No Iterations 1
GAMG:  Solving for p, Initial residual = 6.62245e-06, Final residual = 7.4693e-07, No Iterations 3
GAMG:  Solving for p, Initial residual = 4.26468e-06, Final residual = 7.2902e-07, No Iterations 1
GAMG:  Solving for p, Initial residual = 1.62026e-06, Final residual = 5.3528e-07, No Iterations 1
time step continuity errors : sum local = 9.77013e-10, global = -6.47454e-13, cumulative = 3.96273e-05
smoothSolver:  Solving for epsilon, Initial residual = 0.0602458, Final residual = 0.00039109, No Iterations 1
smoothSolver:  Solving for k, Initial residual = 7.6972e-07, Final residual = 8.48047e-08, No Iterations 1
ExecutionTime = 598.602 s  ClockTime = 607 s

Time = 987s

smoothSolver:  Solving for Ux, Initial residual = 1.06413e-07, Final residual = 7.59868e-09, No Iterations 1
smoothSolver:  Solving for Uy, Initial residual = 3.32293e-06, Final residual = 7.6122e-08, No Iterations 2
smoothSolver:  Solving for Uz, Initial residual = 6.93123e-06, Final residual = 6.46546e-07, No Iterations 1
GAMG:  Solving for p, Initial residual = 6.57e-06, Final residual = 6.78925e-07, No Iterations 3
GAMG:  Solving for p, Initial residual = 3.95147e-06, Final residual = 6.69096e-07, No Iterations 1
GAMG:  Solving for p, Initial residual = 1.51363e-06, Final residual = 4.85365e-07, No Iterations 1
time step continuity errors : sum local = 8.85895e-10, global = 2.96838e-12, cumulative = 3.96273e-05
smoothSolver:  Solving for epsilon, Initial residual = 0.0602456, Final residual = 0.000391091, No Iterations 1
smoothSolver:  Solving for k, Initial residual = 7.32815e-07, Final residual = 8.25832e-08, No Iterations 1
bounding k, min: -0.035297 max: 10.1917 average: 1.55597
ExecutionTime = 599.123 s  ClockTime = 607 s

Time = 988s

smoothSolver:  Solving for Ux, Initial residual = 1.03508e-07, Final residual = 7.60277e-09, No Iterations 1
smoothSolver:  Solving for Uy, Initial residual = 3.22117e-06, Final residual = 7.45175e-08, No Iterations 2
smoothSolver:  Solving for Uz, Initial residual = 6.77808e-06, Final residual = 6.35403e-07, No Iterations 1
GAMG:  Solving for p, Initial residual = 6.50285e-06, Final residual = 7.10711e-07, No Iterations 3
GAMG:  Solving for p, Initial residual = 4.06259e-06, Final residual = 6.97318e-07, No Iterations 1
GAMG:  Solving for p, Initial residual = 1.55202e-06, Final residual = 5.09341e-07, No Iterations 1
time step continuity errors : sum local = 9.29669e-10, global = 3.67351e-12, cumulative = 3.96273e-05
smoothSolver:  Solving for epsilon, Initial residual = 0.0602458, Final residual = 0.000391088, No Iterations 1
smoothSolver:  Solving for k, Initial residual = 7.68947e-07, Final residual = 8.47988e-08, No Iterations 1
ExecutionTime = 599.633 s  ClockTime = 608 s

Time = 989s

smoothSolver:  Solving for Ux, Initial residual = 1.00218e-07, Final residual = 7.54167e-09, No Iterations 1
smoothSolver:  Solving for Uy, Initial residual = 3.22182e-06, Final residual = 7.49888e-08, No Iterations 2
smoothSolver:  Solving for Uz, Initial residual = 6.81043e-06, Final residual = 6.35508e-07, No Iterations 1
GAMG:  Solving for p, Initial residual = 6.4732e-06, Final residual = 6.93388e-07, No Iterations 3
GAMG:  Solving for p, Initial residual = 3.86831e-06, Final residual = 6.6912e-07, No Iterations 1
GAMG:  Solving for p, Initial residual = 1.49244e-06, Final residual = 4.92635e-07, No Iterations 1
time step continuity errors : sum local = 8.99164e-10, global = 4.67216e-12, cumulative = 3.96273e-05
smoothSolver:  Solving for epsilon, Initial residual = 0.0602456, Final residual = 0.00039109, No Iterations 1
smoothSolver:  Solving for k, Initial residual = 7.3226e-07, Final residual = 8.26741e-08, No Iterations 1
bounding k, min: -0.0352372 max: 10.1917 average: 1.55597
ExecutionTime = 600.153 s  ClockTime = 608 s

Time = 990s

smoothSolver:  Solving for Ux, Initial residual = 1.00843e-07, Final residual = 7.43389e-09, No Iterations 1
smoothSolver:  Solving for Uy, Initial residual = 3.14742e-06, Final residual = 7.1194e-08, No Iterations 2
smoothSolver:  Solving for Uz, Initial residual = 6.70261e-06, Final residual = 6.28463e-07, No Iterations 1
GAMG:  Solving for p, Initial residual = 6.43101e-06, Final residual = 7.14742e-07, No Iterations 3
GAMG:  Solving for p, Initial residual = 3.97803e-06, Final residual = 6.96144e-07, No Iterations 1
GAMG:  Solving for p, Initial residual = 1.5357e-06, Final residual = 5.10355e-07, No Iterations 1
time step continuity errors : sum local = 9.31519e-10, global = 2.59944e-12, cumulative = 3.96273e-05
smoothSolver:  Solving for epsilon, Initial residual = 0.0602458, Final residual = 0.000391089, No Iterations 1
smoothSolver:  Solving for k, Initial residual = 7.68619e-07, Final residual = 8.47313e-08, No Iterations 1
ExecutionTime = 600.666 s  ClockTime = 609 s

Time = 991s

smoothSolver:  Solving for Ux, Initial residual = 9.77725e-08, Final residual = 9.77725e-08, No Iterations 0
smoothSolver:  Solving for Uy, Initial residual = 3.15514e-06, Final residual = 7.19879e-08, No Iterations 2
smoothSolver:  Solving for Uz, Initial residual = 6.70772e-06, Final residual = 6.284e-07, No Iterations 1
GAMG:  Solving for p, Initial residual = 7.012e-06, Final residual = 8.46144e-07, No Iterations 3
GAMG:  Solving for p, Initial residual = 4.50334e-06, Final residual = 8.03272e-07, No Iterations 1
GAMG:  Solving for p, Initial residual = 1.71324e-06, Final residual = 5.93588e-07, No Iterations 1
time step continuity errors : sum local = 1.08343e-09, global = 2.62398e-12, cumulative = 3.96273e-05
smoothSolver:  Solving for epsilon, Initial residual = 0.0602456, Final residual = 0.00039109, No Iterations 1
smoothSolver:  Solving for k, Initial residual = 7.2943e-07, Final residual = 8.27736e-08, No Iterations 1
bounding k, min: -0.0354909 max: 10.1917 average: 1.55597
ExecutionTime = 601.18 s  ClockTime = 609 s

Time = 992s

smoothSolver:  Solving for Ux, Initial residual = 1.22187e-07, Final residual = 8.19011e-09, No Iterations 1
smoothSolver:  Solving for Uy, Initial residual = 3.08882e-06, Final residual = 7.35755e-08, No Iterations 2
smoothSolver:  Solving for Uz, Initial residual = 6.91458e-06, Final residual = 6.43487e-07, No Iterations 1
GAMG:  Solving for p, Initial residual = 6.75034e-06, Final residual = 7.18569e-07, No Iterations 3
GAMG:  Solving for p, Initial residual = 3.93601e-06, Final residual = 6.91126e-07, No Iterations 1
GAMG:  Solving for p, Initial residual = 1.53397e-06, Final residual = 4.98707e-07, No Iterations 1
time step continuity errors : sum local = 9.10259e-10, global = -1.21467e-12, cumulative = 3.96273e-05
smoothSolver:  Solving for epsilon, Initial residual = 0.0602458, Final residual = 0.000391089, No Iterations 1
smoothSolver:  Solving for k, Initial residual = 7.68887e-07, Final residual = 8.46075e-08, No Iterations 1
ExecutionTime = 601.692 s  ClockTime = 610 s

Time = 993s

smoothSolver:  Solving for Ux, Initial residual = 1.13223e-07, Final residual = 8.24106e-09, No Iterations 1
smoothSolver:  Solving for Uy, Initial residual = 3.0608e-06, Final residual = 6.93152e-08, No Iterations 2
smoothSolver:  Solving for Uz, Initial residual = 6.83258e-06, Final residual = 6.12328e-07, No Iterations 1
GAMG:  Solving for p, Initial residual = 6.7647e-06, Final residual = 7.54923e-07, No Iterations 3
GAMG:  Solving for p, Initial residual = 4.21294e-06, Final residual = 7.23123e-07, No Iterations 1
GAMG:  Solving for p, Initial residual = 1.61114e-06, Final residual = 5.24136e-07, No Iterations 1
time step continuity errors : sum local = 9.5666e-10, global = -2.27829e-12, cumulative = 3.96273e-05
smoothSolver:  Solving for epsilon, Initial residual = 0.0602456, Final residual = 0.000391092, No Iterations 1
smoothSolver:  Solving for k, Initial residual = 7.35468e-07, Final residual = 8.30138e-08, No Iterations 1
bounding k, min: -0.034902 max: 10.1917 average: 1.55597
ExecutionTime = 602.212 s  ClockTime = 611 s

Time = 994s

smoothSolver:  Solving for Ux, Initial residual = 1.12302e-07, Final residual = 7.91256e-09, No Iterations 1
smoothSolver:  Solving for Uy, Initial residual = 3.27981e-06, Final residual = 7.53586e-08, No Iterations 2
smoothSolver:  Solving for Uz, Initial residual = 7.12065e-06, Final residual = 6.5311e-07, No Iterations 1
GAMG:  Solving for p, Initial residual = 6.77136e-06, Final residual = 7.55791e-07, No Iterations 3
GAMG:  Solving for p, Initial residual = 4.17248e-06, Final residual = 7.342e-07, No Iterations 1
GAMG:  Solving for p, Initial residual = 1.6084e-06, Final residual = 5.41869e-07, No Iterations 1
time step continuity errors : sum local = 9.89041e-10, global = -4.43462e-12, cumulative = 3.96273e-05
smoothSolver:  Solving for epsilon, Initial residual = 0.0602458, Final residual = 0.000391091, No Iterations 1
smoothSolver:  Solving for k, Initial residual = 7.72144e-07, Final residual = 8.49844e-08, No Iterations 1
ExecutionTime = 602.726 s  ClockTime = 611 s

Time = 995s

smoothSolver:  Solving for Ux, Initial residual = 1.1185e-07, Final residual = 7.97097e-09, No Iterations 1
smoothSolver:  Solving for Uy, Initial residual = 3.34493e-06, Final residual = 7.40519e-08, No Iterations 2
smoothSolver:  Solving for Uz, Initial residual = 7.17248e-06, Final residual = 6.60493e-07, No Iterations 1
GAMG:  Solving for p, Initial residual = 6.78056e-06, Final residual = 7.94489e-07, No Iterations 3
GAMG:  Solving for p, Initial residual = 4.14778e-06, Final residual = 7.52025e-07, No Iterations 1
GAMG:  Solving for p, Initial residual = 1.61689e-06, Final residual = 5.48709e-07, No Iterations 1
time step continuity errors : sum local = 1.00151e-09, global = -3.43591e-12, cumulative = 3.96273e-05
smoothSolver:  Solving for epsilon, Initial residual = 0.0602456, Final residual = 0.000391091, No Iterations 1
smoothSolver:  Solving for k, Initial residual = 7.36318e-07, Final residual = 8.29105e-08, No Iterations 1
bounding k, min: -0.0353231 max: 10.1917 average: 1.55597
ExecutionTime = 603.247 s  ClockTime = 612 s

Time = 996s

smoothSolver:  Solving for Ux, Initial residual = 1.05596e-07, Final residual = 7.68474e-09, No Iterations 1
smoothSolver:  Solving for Uy, Initial residual = 3.48066e-06, Final residual = 7.51202e-08, No Iterations 2
smoothSolver:  Solving for Uz, Initial residual = 7.23624e-06, Final residual = 6.51322e-07, No Iterations 1
GAMG:  Solving for p, Initial residual = 6.79267e-06, Final residual = 7.82863e-07, No Iterations 3
GAMG:  Solving for p, Initial residual = 4.34836e-06, Final residual = 7.5052e-07, No Iterations 1
GAMG:  Solving for p, Initial residual = 1.65288e-06, Final residual = 5.48765e-07, No Iterations 1
time step continuity errors : sum local = 1.00163e-09, global = -3.28595e-12, cumulative = 3.96273e-05
smoothSolver:  Solving for epsilon, Initial residual = 0.0602458, Final residual = 0.00039109, No Iterations 1
smoothSolver:  Solving for k, Initial residual = 7.72555e-07, Final residual = 8.50812e-08, No Iterations 1
ExecutionTime = 603.757 s  ClockTime = 612 s

Time = 997s

smoothSolver:  Solving for Ux, Initial residual = 1.0816e-07, Final residual = 7.71899e-09, No Iterations 1
smoothSolver:  Solving for Uy, Initial residual = 3.45707e-06, Final residual = 7.71833e-08, No Iterations 2
smoothSolver:  Solving for Uz, Initial residual = 7.26975e-06, Final residual = 6.72728e-07, No Iterations 1
GAMG:  Solving for p, Initial residual = 6.70355e-06, Final residual = 7.06606e-07, No Iterations 3
GAMG:  Solving for p, Initial residual = 4.06438e-06, Final residual = 6.89837e-07, No Iterations 1
GAMG:  Solving for p, Initial residual = 1.55193e-06, Final residual = 4.96326e-07, No Iterations 1
time step continuity errors : sum local = 9.059e-10, global = -6.33951e-13, cumulative = 3.96273e-05
smoothSolver:  Solving for epsilon, Initial residual = 0.0602456, Final residual = 0.00039109, No Iterations 1
smoothSolver:  Solving for k, Initial residual = 7.36297e-07, Final residual = 8.29102e-08, No Iterations 1
bounding k, min: -0.0350845 max: 10.1917 average: 1.55597
ExecutionTime = 604.276 s  ClockTime = 613 s

Time = 998s

smoothSolver:  Solving for Ux, Initial residual = 1.07367e-07, Final residual = 7.56005e-09, No Iterations 1
smoothSolver:  Solving for Uy, Initial residual = 3.29479e-06, Final residual = 7.36107e-08, No Iterations 2
smoothSolver:  Solving for Uz, Initial residual = 6.93283e-06, Final residual = 6.36914e-07, No Iterations 1
GAMG:  Solving for p, Initial residual = 6.61499e-06, Final residual = 7.27061e-07, No Iterations 3
GAMG:  Solving for p, Initial residual = 4.1273e-06, Final residual = 7.03761e-07, No Iterations 1
GAMG:  Solving for p, Initial residual = 1.5736e-06, Final residual = 5.13346e-07, No Iterations 1
time step continuity errors : sum local = 9.36978e-10, global = 1.06029e-13, cumulative = 3.96273e-05
smoothSolver:  Solving for epsilon, Initial residual = 0.0602458, Final residual = 0.000391089, No Iterations 1
smoothSolver:  Solving for k, Initial residual = 7.73559e-07, Final residual = 8.53178e-08, No Iterations 1
ExecutionTime = 604.788 s  ClockTime = 613 s

Time = 999s

smoothSolver:  Solving for Ux, Initial residual = 1.02154e-07, Final residual = 7.59443e-09, No Iterations 1
smoothSolver:  Solving for Uy, Initial residual = 3.27052e-06, Final residual = 7.40249e-08, No Iterations 2
smoothSolver:  Solving for Uz, Initial residual = 6.95148e-06, Final residual = 6.41459e-07, No Iterations 1
GAMG:  Solving for p, Initial residual = 6.60913e-06, Final residual = 6.98267e-07, No Iterations 3
GAMG:  Solving for p, Initial residual = 3.85634e-06, Final residual = 6.71961e-07, No Iterations 1
GAMG:  Solving for p, Initial residual = 1.48518e-06, Final residual = 4.93092e-07, No Iterations 1
time step continuity errors : sum local = 8.99997e-10, global = 1.8834e-12, cumulative = 3.96273e-05
smoothSolver:  Solving for epsilon, Initial residual = 0.0602456, Final residual = 0.00039109, No Iterations 1
smoothSolver:  Solving for k, Initial residual = 7.3625e-07, Final residual = 8.30613e-08, No Iterations 1
bounding k, min: -0.0353498 max: 10.1917 average: 1.55597
ExecutionTime = 605.308 s  ClockTime = 614 s

Time = 1000s

smoothSolver:  Solving for Ux, Initial residual = 1.02941e-07, Final residual = 7.49426e-09, No Iterations 1
smoothSolver:  Solving for Uy, Initial residual = 3.15637e-06, Final residual = 7.00505e-08, No Iterations 2
smoothSolver:  Solving for Uz, Initial residual = 6.82156e-06, Final residual = 6.30729e-07, No Iterations 1
GAMG:  Solving for p, Initial residual = 6.489e-06, Final residual = 7.1743e-07, No Iterations 3
GAMG:  Solving for p, Initial residual = 3.99073e-06, Final residual = 6.95975e-07, No Iterations 1
GAMG:  Solving for p, Initial residual = 1.53839e-06, Final residual = 5.11667e-07, No Iterations 1
time step continuity errors : sum local = 9.33913e-10, global = 5.11744e-13, cumulative = 3.96273e-05
smoothSolver:  Solving for epsilon, Initial residual = 0.0602458, Final residual = 0.000391089, No Iterations 1
smoothSolver:  Solving for k, Initial residual = 7.72042e-07, Final residual = 8.49334e-08, No Iterations 1
ExecutionTime = 606.811 s  ClockTime = 615 s

End

