/*---------------------------------------------------------------------------*\
  =========                 |
  \\      /  F ield         | OpenFOAM: The Open Source CFD Toolbox
   \\    /   O peration     | Website:  https://openfoam.org
    \\  /    A nd           | Version:  13
     \\/     M anipulation  |
\*---------------------------------------------------------------------------*/
Build  : 13-441953dfbb42
Exec   : checkMesh
Date   : Jun 19 2026
Time   : 13:15:33
Host   : "openfoam"
PID    : 1822
I/O    : uncollated
Case   : /home/ubuntu/OpenFOAM/ubuntu-v13/run/sRiverNoTerrain/rans/winter
nProcs : 1
sigFpe : Floating point exception trapping - not supported on this platform
fileModificationChecking : Monitoring run-time modified files using timeStampMaster (fileModificationSkew 10)
allowSystemOperations : Allowing user-supplied system call operations

// * * * * * * * * * * * * * * * * * * * * * * * * * * * * * * * * * * * * * //
Create time

Create mesh for time = 0

Time = 0s

Mesh stats
    points:           302985
    faces:            823546
    internal faces:   780104
    cells:            260509
    faces per cell:   6.15583
    boundary patches: 6
    point zones:      0
    face zones:       0
    cell zones:       0

Overall number of cells of each type:
    hexahedra:     245791
    prisms:        346
    wedges:        0
    pyramids:      0
    tet wedges:    1
    tetrahedra:    0
    polyhedra:     14371
    Breakdown of polyhedra by number of faces:
        faces   number of cells
            4   16
            5   352
            6   1495
            9   11569
           12   665
           15   224
           18   45
           21   5

Checking topology...
    Boundary definition OK.
    Cell to face addressing OK.
    Point usage OK.
    Upper triangular ordering OK.
    Face vertices OK.
    Number of regions: 1 (OK).

Checking patch topology for multiply connected surfaces...
                   Patch    Faces   Points                  Surface topology
                   inlet      800      861  ok (non-closed singly connected)
                  outlet      800      861  ok (non-closed singly connected)
                  ground    26925    27767  ok (non-closed singly connected)
            frontAndBack     2000     2142  ok (non-closed singly connected)
                     sky     2000     2091  ok (non-closed singly connected)
               buildings    10917    11671  ok (non-closed singly connected)

Checking geometry...
    Overall domain bounding box (-1600.36 -1600.36 -0.187244) (4000.9 1600.36 160.5)
    Mesh has 3 geometric (non-empty/wedge) directions (1 1 1)
    Mesh has 3 solution (non-empty) directions (1 1 1)
    Max cell openness = 3.1798e-16 OK.
    Max aspect ratio = 50.6646 OK.
    Minimum face area = 1.12089. Maximum face area = 8966.91.  Face area magnitudes OK.
    Min volume = 19.6707. Max volume = 72009.  Total volume = 2.87575e+09.  Cell volumes OK.
    Mesh non-orthogonality Max: 80.0818 average: 17.0269
   *Number of severely non-orthogonal (> 70 degrees) faces: 35082.
    Non-orthogonality check OK.
    Face pyramids OK.
 ***Max skewness = 14.1184, 267 highly skew faces detected which may impair the quality of the results
    Coupled point location match (average 0) OK.

Failed 1 mesh checks.

End

