/*---------------------------------------------------------------------------*\
  =========                 |
  \\      /  F ield         | OpenFOAM: The Open Source CFD Toolbox
   \\    /   O peration     | Website:  https://openfoam.org
    \\  /    A nd           | Version:  13
     \\/     M anipulation  |
\*---------------------------------------------------------------------------*/
Build  : 13-441953dfbb42
Exec   : foamRun -solver incompressibleFluid
Date   : Jun 19 2026
Time   : 13:15:40
Host   : "openfoam"
PID    : 1825
I/O    : uncollated
Case   : /home/ubuntu/OpenFOAM/ubuntu-v13/run/sRiverNoTerrain/rans/winter
nProcs : 1
sigFpe : Floating point exception trapping - not supported on this platform
fileModificationChecking : Monitoring run-time modified files using timeStampMaster (fileModificationSkew 10)
allowSystemOperations : Allowing user-supplied system call operations

// * * * * * * * * * * * * * * * * * * * * * * * * * * * * * * * * * * * * * //
Create time

Create mesh for time = 0

Selecting solver incompressibleFluid
Selecting viscosity model constant
Selecting turbulence model type RAS
    Selecting RAS turbulence model kEpsilon
No MRF models present


SIMPLE: Convergence criteria found
        p: tolerance 1e-05
        U: tolerance 1e-06
        k: tolerance 1e-06
        epsilon: tolerance 1e-06


SIMPLE: Operating solver in steady-state mode with 1 outer corrector
SIMPLE: Operating solver in SIMPLE mode



Starting time loop

Reading surface description:
    pedestrianZone

Time = 1s

smoothSolver:  Solving for Ux, Initial residual = 1, Final residual = 0.0910476, No Iterations 1
smoothSolver:  Solving for Uy, Initial residual = 1, Final residual = 0.0455379, No Iterations 2
smoothSolver:  Solving for Uz, Initial residual = 1, Final residual = 0.0971392, No Iterations 1
GAMG:  Solving for p, Initial residual = 1, Final residual = 0.0469964, No Iterations 95
GAMG:  Solving for p, Initial residual = 0.23379, Final residual = 0.00721571, No Iterations 3
GAMG:  Solving for p, Initial residual = 0.0595767, Final residual = 0.00201194, No Iterations 3
time step continuity errors : sum local = 0.000345357, global = -2.39941e-05, cumulative = -2.39941e-05
smoothSolver:  Solving for epsilon, Initial residual = 0.454871, Final residual = 0.00174513, No Iterations 1
smoothSolver:  Solving for k, Initial residual = 1, Final residual = 0.0113376, No Iterations 1
ExecutionTime = 3.67897 s  ClockTime = 7 s

Time = 2s

smoothSolver:  Solving for Ux, Initial residual = 0.51762, Final residual = 0.0391602, No Iterations 1
smoothSolver:  Solving for Uy, Initial residual = 0.565289, Final residual = 0.0164029, No Iterations 2
smoothSolver:  Solving for Uz, Initial residual = 0.25223, Final residual = 0.00947799, No Iterations 2
GAMG:  Solving for p, Initial residual = 0.0517215, Final residual = 0.00250206, No Iterations 66
GAMG:  Solving for p, Initial residual = 0.152887, Final residual = 0.0067688, No Iterations 3
GAMG:  Solving for p, Initial residual = 0.046007, Final residual = 0.00189378, No Iterations 4
time step continuity errors : sum local = 0.000259541, global = 4.11885e-05, cumulative = 1.71944e-05
smoothSolver:  Solving for epsilon, Initial residual = 0.209197, Final residual = 0.000121671, No Iterations 1
smoothSolver:  Solving for k, Initial residual = 0.217428, Final residual = 0.00275333, No Iterations 1
ExecutionTime = 5.27542 s  ClockTime = 9 s

Time = 3s

smoothSolver:  Solving for Ux, Initial residual = 0.305418, Final residual = 0.0201914, No Iterations 1
smoothSolver:  Solving for Uy, Initial residual = 0.305201, Final residual = 0.00774316, No Iterations 2
smoothSolver:  Solving for Uz, Initial residual = 0.167485, Final residual = 0.00513415, No Iterations 2
GAMG:  Solving for p, Initial residual = 0.0508237, Final residual = 0.00243885, No Iterations 59
GAMG:  Solving for p, Initial residual = 0.382912, Final residual = 0.0162544, No Iterations 3
GAMG:  Solving for p, Initial residual = 0.14287, Final residual = 0.00530082, No Iterations 4
time step continuity errors : sum local = 0.000358563, global = -4.15661e-05, cumulative = -2.43717e-05
smoothSolver:  Solving for epsilon, Initial residual = 0.0484395, Final residual = 4.68443e-05, No Iterations 1
smoothSolver:  Solving for k, Initial residual = 0.0793049, Final residual = 0.00158583, No Iterations 1
ExecutionTime = 6.77405 s  ClockTime = 10 s

Time = 4s

smoothSolver:  Solving for Ux, Initial residual = 0.107631, Final residual = 0.00765457, No Iterations 1
smoothSolver:  Solving for Uy, Initial residual = 0.157086, Final residual = 0.0154552, No Iterations 1
smoothSolver:  Solving for Uz, Initial residual = 0.151638, Final residual = 0.00442744, No Iterations 2
GAMG:  Solving for p, Initial residual = 0.0702279, Final residual = 0.00335374, No Iterations 92
GAMG:  Solving for p, Initial residual = 0.300222, Final residual = 0.0107176, No Iterations 3
GAMG:  Solving for p, Initial residual = 0.0872889, Final residual = 0.0030466, No Iterations 3
time step continuity errors : sum local = 0.000517029, global = 3.03332e-05, cumulative = 5.96143e-06
smoothSolver:  Solving for epsilon, Initial residual = 0.0207616, Final residual = 3.95301e-05, No Iterations 1
smoothSolver:  Solving for k, Initial residual = 0.0468031, Final residual = 0.00110015, No Iterations 1
ExecutionTime = 8.84709 s  ClockTime = 12 s

Time = 5s

smoothSolver:  Solving for Ux, Initial residual = 0.124671, Final residual = 0.00757025, No Iterations 1
smoothSolver:  Solving for Uy, Initial residual = 0.207379, Final residual = 0.0199394, No Iterations 1
smoothSolver:  Solving for Uz, Initial residual = 0.255505, Final residual = 0.00754431, No Iterations 2
GAMG:  Solving for p, Initial residual = 0.102433, Final residual = 0.00481527, No Iterations 49
GAMG:  Solving for p, Initial residual = 0.178849, Final residual = 0.00753563, No Iterations 3
GAMG:  Solving for p, Initial residual = 0.0503345, Final residual = 0.00224806, No Iterations 5
time step continuity errors : sum local = 0.000183902, global = 1.98946e-05, cumulative = 2.5856e-05
smoothSolver:  Solving for epsilon, Initial residual = 0.0124742, Final residual = 4.6726e-05, No Iterations 1
smoothSolver:  Solving for k, Initial residual = 0.0402631, Final residual = 0.001093, No Iterations 1
bounding k, min: -0.0841132 max: 16.2857 average: 2.25273
ExecutionTime = 10.2554 s  ClockTime = 14 s

Time = 6s

smoothSolver:  Solving for Ux, Initial residual = 0.203377, Final residual = 0.0138244, No Iterations 1
smoothSolver:  Solving for Uy, Initial residual = 0.253062, Final residual = 0.00529469, No Iterations 2
smoothSolver:  Solving for Uz, Initial residual = 0.177218, Final residual = 0.00616959, No Iterations 2
GAMG:  Solving for p, Initial residual = 0.0727716, Final residual = 0.00345569, No Iterations 48
GAMG:  Solving for p, Initial residual = 0.299474, Final residual = 0.011587, No Iterations 3
GAMG:  Solving for p, Initial residual = 0.10592, Final residual = 0.00479844, No Iterations 4
time step continuity errors : sum local = 0.000238912, global = 4.26437e-05, cumulative = 6.84997e-05
smoothSolver:  Solving for epsilon, Initial residual = 0.0090509, Final residual = 6.60782e-05, No Iterations 1
smoothSolver:  Solving for k, Initial residual = 0.0201172, Final residual = 0.001192, No Iterations 1
ExecutionTime = 11.6109 s  ClockTime = 15 s

Time = 7s

smoothSolver:  Solving for Ux, Initial residual = 0.0905966, Final residual = 0.00788964, No Iterations 1
smoothSolver:  Solving for Uy, Initial residual = 0.192421, Final residual = 0.00462926, No Iterations 2
smoothSolver:  Solving for Uz, Initial residual = 0.176687, Final residual = 0.00659063, No Iterations 2
GAMG:  Solving for p, Initial residual = 0.108637, Final residual = 0.00537546, No Iterations 70
GAMG:  Solving for p, Initial residual = 0.278984, Final residual = 0.0101875, No Iterations 3
GAMG:  Solving for p, Initial residual = 0.0799877, Final residual = 0.00314092, No Iterations 3
time step continuity errors : sum local = 0.000316819, global = 1.12574e-05, cumulative = 7.97571e-05
smoothSolver:  Solving for epsilon, Initial residual = 0.00728855, Final residual = 9.07231e-05, No Iterations 1
smoothSolver:  Solving for k, Initial residual = 0.0161208, Final residual = 0.00125571, No Iterations 1
ExecutionTime = 13.2716 s  ClockTime = 17 s

Time = 8s

smoothSolver:  Solving for Ux, Initial residual = 0.0838761, Final residual = 0.00519243, No Iterations 1
smoothSolver:  Solving for Uy, Initial residual = 0.15483, Final residual = 0.00401283, No Iterations 2
smoothSolver:  Solving for Uz, Initial residual = 0.216374, Final residual = 0.00749109, No Iterations 2
GAMG:  Solving for p, Initial residual = 0.11606, Final residual = 0.00547818, No Iterations 45
GAMG:  Solving for p, Initial residual = 0.216714, Final residual = 0.00857799, No Iterations 3
GAMG:  Solving for p, Initial residual = 0.0579306, Final residual = 0.00250616, No Iterations 5
time step continuity errors : sum local = 0.000130123, global = -1.34547e-05, cumulative = 6.63023e-05
smoothSolver:  Solving for epsilon, Initial residual = 0.00624968, Final residual = 9.39896e-05, No Iterations 1
smoothSolver:  Solving for k, Initial residual = 0.0119136, Final residual = 0.000222604, No Iterations 2
ExecutionTime = 14.534 s  ClockTime = 18 s

Time = 9s

smoothSolver:  Solving for Ux, Initial residual = 0.100118, Final residual = 0.00730176, No Iterations 1
smoothSolver:  Solving for Uy, Initial residual = 0.144916, Final residual = 0.00382744, No Iterations 2
smoothSolver:  Solving for Uz, Initial residual = 0.162718, Final residual = 0.00537767, No Iterations 2
GAMG:  Solving for p, Initial residual = 0.0860556, Final residual = 0.00406777, No Iterations 38
GAMG:  Solving for p, Initial residual = 0.216736, Final residual = 0.00890593, No Iterations 3
GAMG:  Solving for p, Initial residual = 0.0765203, Final residual = 0.00356954, No Iterations 7
time step continuity errors : sum local = 9.97254e-05, global = 1.31832e-05, cumulative = 7.94855e-05
smoothSolver:  Solving for epsilon, Initial residual = 0.00624578, Final residual = 8.64183e-05, No Iterations 1
smoothSolver:  Solving for k, Initial residual = 0.0168436, Final residual = 0.00126173, No Iterations 1
bounding k, min: -0.0495544 max: 11.5292 average: 1.61874
ExecutionTime = 15.7085 s  ClockTime = 19 s

Time = 10s

smoothSolver:  Solving for Ux, Initial residual = 0.0421804, Final residual = 0.0039227, No Iterations 1
smoothSolver:  Solving for Uy, Initial residual = 0.132285, Final residual = 0.00350256, No Iterations 2
smoothSolver:  Solving for Uz, Initial residual = 0.158496, Final residual = 0.00555772, No Iterations 2
GAMG:  Solving for p, Initial residual = 0.117552, Final residual = 0.00573767, No Iterations 62
GAMG:  Solving for p, Initial residual = 0.256132, Final residual = 0.0102567, No Iterations 3
GAMG:  Solving for p, Initial residual = 0.0761688, Final residual = 0.00288352, No Iterations 4
time step continuity errors : sum local = 0.00015808, global = -1.66365e-05, cumulative = 6.2849e-05
smoothSolver:  Solving for epsilon, Initial residual = 0.00692211, Final residual = 8.98393e-05, No Iterations 1
smoothSolver:  Solving for k, Initial residual = 0.0175192, Final residual = 0.00113671, No Iterations 1
bounding k, min: -0.0203099 max: 11.7641 average: 1.63813
ExecutionTime = 17.2442 s  ClockTime = 21 s

Time = 11s

smoothSolver:  Solving for Ux, Initial residual = 0.0423725, Final residual = 0.00380236, No Iterations 1
smoothSolver:  Solving for Uy, Initial residual = 0.136863, Final residual = 0.0031251, No Iterations 2
smoothSolver:  Solving for Uz, Initial residual = 0.201083, Final residual = 0.00648349, No Iterations 2
GAMG:  Solving for p, Initial residual = 0.160784, Final residual = 0.00754162, No Iterations 39
GAMG:  Solving for p, Initial residual = 0.252325, Final residual = 0.0102381, No Iterations 3
GAMG:  Solving for p, Initial residual = 0.0675774, Final residual = 0.00333509, No Iterations 6
time step continuity errors : sum local = 9.76834e-05, global = -2.31581e-05, cumulative = 3.96909e-05
smoothSolver:  Solving for epsilon, Initial residual = 0.00755325, Final residual = 8.282e-05, No Iterations 1
smoothSolver:  Solving for k, Initial residual = 0.0167516, Final residual = 0.00102188, No Iterations 1
bounding k, min: -0.132589 max: 11.2906 average: 1.61717
ExecutionTime = 18.4215 s  ClockTime = 22 s

Time = 12s

smoothSolver:  Solving for Ux, Initial residual = 0.0551456, Final residual = 0.00488213, No Iterations 1
smoothSolver:  Solving for Uy, Initial residual = 0.135617, Final residual = 0.00332188, No Iterations 2
smoothSolver:  Solving for Uz, Initial residual = 0.160468, Final residual = 0.00534534, No Iterations 2
GAMG:  Solving for p, Initial residual = 0.125083, Final residual = 0.00608883, No Iterations 26
GAMG:  Solving for p, Initial residual = 0.185494, Final residual = 0.00892347, No Iterations 3
GAMG:  Solving for p, Initial residual = 0.0622315, Final residual = 0.00310738, No Iterations 11
time step continuity errors : sum local = 5.31234e-05, global = -8.09204e-06, cumulative = 3.15988e-05
smoothSolver:  Solving for epsilon, Initial residual = 0.00944492, Final residual = 9.6887e-05, No Iterations 1
smoothSolver:  Solving for k, Initial residual = 0.0172527, Final residual = 0.0010307, No Iterations 1
ExecutionTime = 19.4536 s  ClockTime = 23 s

Time = 13s

smoothSolver:  Solving for Ux, Initial residual = 0.0280834, Final residual = 0.00077021, No Iterations 2
smoothSolver:  Solving for Uy, Initial residual = 0.121611, Final residual = 0.00358701, No Iterations 2
smoothSolver:  Solving for Uz, Initial residual = 0.134618, Final residual = 0.00506131, No Iterations 2
GAMG:  Solving for p, Initial residual = 0.165531, Final residual = 0.00785202, No Iterations 50
GAMG:  Solving for p, Initial residual = 0.215952, Final residual = 0.00853461, No Iterations 3
GAMG:  Solving for p, Initial residual = 0.0636324, Final residual = 0.00263362, No Iterations 5
time step continuity errors : sum local = 8.45556e-05, global = -8.66097e-06, cumulative = 2.29379e-05
smoothSolver:  Solving for epsilon, Initial residual = 0.0137203, Final residual = 0.000135217, No Iterations 1
smoothSolver:  Solving for k, Initial residual = 0.0142227, Final residual = 0.0010229, No Iterations 1
bounding k, min: -0.119462 max: 10.0619 average: 1.51066
ExecutionTime = 20.8057 s  ClockTime = 24 s

Time = 14s

smoothSolver:  Solving for Ux, Initial residual = 0.0277791, Final residual = 0.00214723, No Iterations 1
smoothSolver:  Solving for Uy, Initial residual = 0.0977374, Final residual = 0.00337214, No Iterations 2
smoothSolver:  Solving for Uz, Initial residual = 0.159973, Final residual = 0.00574928, No Iterations 2
GAMG:  Solving for p, Initial residual = 0.186853, Final residual = 0.00892824, No Iterations 39
GAMG:  Solving for p, Initial residual = 0.249366, Final residual = 0.0101692, No Iterations 3
GAMG:  Solving for p, Initial residual = 0.0650011, Final residual = 0.00297852, No Iterations 7
time step continuity errors : sum local = 6.50912e-05, global = -9.27522e-06, cumulative = 1.36626e-05
smoothSolver:  Solving for epsilon, Initial residual = 0.0197959, Final residual = 0.000172017, No Iterations 1
smoothSolver:  Solving for k, Initial residual = 0.0160795, Final residual = 0.000995118, No Iterations 1
ExecutionTime = 21.9914 s  ClockTime = 25 s

Time = 15s

smoothSolver:  Solving for Ux, Initial residual = 0.0318309, Final residual = 0.00260881, No Iterations 1
smoothSolver:  Solving for Uy, Initial residual = 0.0947472, Final residual = 0.00323516, No Iterations 2
smoothSolver:  Solving for Uz, Initial residual = 0.150786, Final residual = 0.0050691, No Iterations 2
GAMG:  Solving for p, Initial residual = 0.137803, Final residual = 0.0062642, No Iterations 22
GAMG:  Solving for p, Initial residual = 0.197806, Final residual = 0.0074986, No Iterations 4
GAMG:  Solving for p, Initial residual = 0.0592629, Final residual = 0.00296086, No Iterations 10
time step continuity errors : sum local = 3.29776e-05, global = 3.44159e-06, cumulative = 1.71042e-05
smoothSolver:  Solving for epsilon, Initial residual = 0.0238978, Final residual = 0.000183727, No Iterations 1
smoothSolver:  Solving for k, Initial residual = 0.0137524, Final residual = 0.00091187, No Iterations 1
bounding k, min: -0.279956 max: 9.86492 average: 1.45956
ExecutionTime = 22.9628 s  ClockTime = 26 s

Time = 16s

smoothSolver:  Solving for Ux, Initial residual = 0.0205425, Final residual = 0.000532374, No Iterations 2
smoothSolver:  Solving for Uy, Initial residual = 0.100261, Final residual = 0.0032769, No Iterations 2
smoothSolver:  Solving for Uz, Initial residual = 0.135893, Final residual = 0.00473771, No Iterations 2
GAMG:  Solving for p, Initial residual = 0.154591, Final residual = 0.00751129, No Iterations 36
GAMG:  Solving for p, Initial residual = 0.181655, Final residual = 0.00780507, No Iterations 3
GAMG:  Solving for p, Initial residual = 0.0567603, Final residual = 0.00267921, No Iterations 9
time step continuity errors : sum local = 4.73199e-05, global = 7.42431e-06, cumulative = 2.45285e-05
smoothSolver:  Solving for epsilon, Initial residual = 0.0239362, Final residual = 0.000180281, No Iterations 1
smoothSolver:  Solving for k, Initial residual = 0.0114775, Final residual = 0.000874552, No Iterations 1
bounding k, min: -0.123785 max: 9.90062 average: 1.45502
ExecutionTime = 24.1446 s  ClockTime = 28 s

Time = 17s

smoothSolver:  Solving for Ux, Initial residual = 0.0166995, Final residual = 0.000507794, No Iterations 2
smoothSolver:  Solving for Uy, Initial residual = 0.0916642, Final residual = 0.00322962, No Iterations 2
smoothSolver:  Solving for Uz, Initial residual = 0.142161, Final residual = 0.00496323, No Iterations 2
GAMG:  Solving for p, Initial residual = 0.224674, Final residual = 0.0104713, No Iterations 43
GAMG:  Solving for p, Initial residual = 0.25595, Final residual = 0.0108723, No Iterations 3
GAMG:  Solving for p, Initial residual = 0.0724649, Final residual = 0.00359161, No Iterations 8
time step continuity errors : sum local = 4.86084e-05, global = -1.12784e-05, cumulative = 1.32501e-05
smoothSolver:  Solving for epsilon, Initial residual = 0.0240149, Final residual = 0.000185049, No Iterations 1
smoothSolver:  Solving for k, Initial residual = 0.0129154, Final residual = 0.000857994, No Iterations 1
bounding k, min: -0.253807 max: 9.86845 average: 1.44811
ExecutionTime = 25.4272 s  ClockTime = 29 s

Time = 18s

smoothSolver:  Solving for Ux, Initial residual = 0.0182629, Final residual = 0.000532188, No Iterations 2
smoothSolver:  Solving for Uy, Initial residual = 0.0832985, Final residual = 0.00306146, No Iterations 2
smoothSolver:  Solving for Uz, Initial residual = 0.129637, Final residual = 0.00455549, No Iterations 2
GAMG:  Solving for p, Initial residual = 0.181084, Final residual = 0.00812315, No Iterations 22
GAMG:  Solving for p, Initial residual = 0.230307, Final residual = 0.0112644, No Iterations 3
GAMG:  Solving for p, Initial residual = 0.0698773, Final residual = 0.00313139, No Iterations 11
time step continuity errors : sum local = 2.56486e-05, global = -4.40137e-06, cumulative = 8.84875e-06
smoothSolver:  Solving for epsilon, Initial residual = 0.0248747, Final residual = 0.000190684, No Iterations 1
smoothSolver:  Solving for k, Initial residual = 0.0135605, Final residual = 0.000845331, No Iterations 1
bounding k, min: -0.226532 max: 9.74591 average: 1.43401
ExecutionTime = 26.4022 s  ClockTime = 30 s

Time = 19s

smoothSolver:  Solving for Ux, Initial residual = 0.0149974, Final residual = 0.000473755, No Iterations 2
smoothSolver:  Solving for Uy, Initial residual = 0.080527, Final residual = 0.00300508, No Iterations 2
smoothSolver:  Solving for Uz, Initial residual = 0.124867, Final residual = 0.00432611, No Iterations 2
GAMG:  Solving for p, Initial residual = 0.213754, Final residual = 0.00959326, No Iterations 26
GAMG:  Solving for p, Initial residual = 0.168231, Final residual = 0.00794689, No Iterations 3
GAMG:  Solving for p, Initial residual = 0.0542246, Final residual = 0.00241201, No Iterations 11
time step continuity errors : sum local = 2.68271e-05, global = -4.19285e-06, cumulative = 4.6559e-06
smoothSolver:  Solving for epsilon, Initial residual = 0.0262181, Final residual = 0.000202236, No Iterations 1
smoothSolver:  Solving for k, Initial residual = 0.0122471, Final residual = 0.000819193, No Iterations 1
bounding k, min: -0.241906 max: 9.5663 average: 1.41658
ExecutionTime = 27.4445 s  ClockTime = 31 s

Time = 20s

smoothSolver:  Solving for Ux, Initial residual = 0.0145988, Final residual = 0.000374327, No Iterations 2
smoothSolver:  Solving for Uy, Initial residual = 0.0766836, Final residual = 0.0030489, No Iterations 2
smoothSolver:  Solving for Uz, Initial residual = 0.126762, Final residual = 0.00407421, No Iterations 2
GAMG:  Solving for p, Initial residual = 0.217059, Final residual = 0.0102841, No Iterations 33
GAMG:  Solving for p, Initial residual = 0.22182, Final residual = 0.00999774, No Iterations 3
GAMG:  Solving for p, Initial residual = 0.0662183, Final residual = 0.00307725, No Iterations 11
time step continuity errors : sum local = 3.19652e-05, global = -5.54653e-06, cumulative = -8.90632e-07
smoothSolver:  Solving for epsilon, Initial residual = 0.0264028, Final residual = 0.000203534, No Iterations 1
smoothSolver:  Solving for k, Initial residual = 0.0099978, Final residual = 0.000775847, No Iterations 1
bounding k, min: -0.158865 max: 9.37904 average: 1.40234
ExecutionTime = 28.6057 s  ClockTime = 32 s

Time = 21s

smoothSolver:  Solving for Ux, Initial residual = 0.0142026, Final residual = 0.00140578, No Iterations 1
smoothSolver:  Solving for Uy, Initial residual = 0.074021, Final residual = 0.00311853, No Iterations 2
smoothSolver:  Solving for Uz, Initial residual = 0.121312, Final residual = 0.00379308, No Iterations 2
GAMG:  Solving for p, Initial residual = 0.188474, Final residual = 0.00917574, No Iterations 24
GAMG:  Solving for p, Initial residual = 0.289071, Final residual = 0.0139616, No Iterations 3
GAMG:  Solving for p, Initial residual = 0.0798968, Final residual = 0.00372971, No Iterations 14
time step continuity errors : sum local = 2.5573e-05, global = -4.44106e-06, cumulative = -5.3317e-06
smoothSolver:  Solving for epsilon, Initial residual = 0.0267993, Final residual = 0.000203759, No Iterations 1
smoothSolver:  Solving for k, Initial residual = 0.00959099, Final residual = 0.000718074, No Iterations 1
bounding k, min: -0.130989 max: 9.22776 average: 1.39554
ExecutionTime = 29.6604 s  ClockTime = 33 s

Time = 22s

smoothSolver:  Solving for Ux, Initial residual = 0.0115786, Final residual = 0.000345237, No Iterations 2
smoothSolver:  Solving for Uy, Initial residual = 0.0707793, Final residual = 0.00312362, No Iterations 2
smoothSolver:  Solving for Uz, Initial residual = 0.106534, Final residual = 0.00344471, No Iterations 2
GAMG:  Solving for p, Initial residual = 0.182549, Final residual = 0.00865953, No Iterations 18
GAMG:  Solving for p, Initial residual = 0.187302, Final residual = 0.00797457, No Iterations 4
GAMG:  Solving for p, Initial residual = 0.0563063, Final residual = 0.00273331, No Iterations 12
time step continuity errors : sum local = 1.76765e-05, global = 2.19323e-06, cumulative = -3.13846e-06
smoothSolver:  Solving for epsilon, Initial residual = 0.0271007, Final residual = 0.00019602, No Iterations 1
smoothSolver:  Solving for k, Initial residual = 0.00921085, Final residual = 0.000733892, No Iterations 1
bounding k, min: -0.112483 max: 9.11954 average: 1.39382
ExecutionTime = 30.6008 s  ClockTime = 34 s

Time = 23s

smoothSolver:  Solving for Ux, Initial residual = 0.00998762, Final residual = 0.000354914, No Iterations 2
smoothSolver:  Solving for Uy, Initial residual = 0.0680963, Final residual = 0.00310035, No Iterations 2
smoothSolver:  Solving for Uz, Initial residual = 0.10032, Final residual = 0.0034929, No Iterations 2
GAMG:  Solving for p, Initial residual = 0.197012, Final residual = 0.0094546, No Iterations 23
GAMG:  Solving for p, Initial residual = 0.215967, Final residual = 0.00938507, No Iterations 4
GAMG:  Solving for p, Initial residual = 0.0682806, Final residual = 0.00333868, No Iterations 16
time step continuity errors : sum local = 1.80538e-05, global = 2.87508e-06, cumulative = -2.63383e-07
smoothSolver:  Solving for epsilon, Initial residual = 0.0279219, Final residual = 0.00020092, No Iterations 1
smoothSolver:  Solving for k, Initial residual = 0.00860844, Final residual = 0.000704094, No Iterations 1
bounding k, min: -0.125366 max: 9.04061 average: 1.39406
ExecutionTime = 31.6939 s  ClockTime = 35 s

Time = 24s

smoothSolver:  Solving for Ux, Initial residual = 0.00972045, Final residual = 0.000358314, No Iterations 2
smoothSolver:  Solving for Uy, Initial residual = 0.0646217, Final residual = 0.00295709, No Iterations 2
smoothSolver:  Solving for Uz, Initial residual = 0.102674, Final residual = 0.00366442, No Iterations 2
GAMG:  Solving for p, Initial residual = 0.232772, Final residual = 0.0111864, No Iterations 22
GAMG:  Solving for p, Initial residual = 0.221639, Final residual = 0.0101481, No Iterations 4
GAMG:  Solving for p, Initial residual = 0.0767871, Final residual = 0.00353583, No Iterations 15
time step continuity errors : sum local = 1.809e-05, global = 3.20128e-06, cumulative = 2.9379e-06
smoothSolver:  Solving for epsilon, Initial residual = 0.0274726, Final residual = 0.000198115, No Iterations 1
smoothSolver:  Solving for k, Initial residual = 0.00854924, Final residual = 0.000692322, No Iterations 1
bounding k, min: -0.138503 max: 8.96429 average: 1.39305
ExecutionTime = 32.7515 s  ClockTime = 36 s

Time = 25s

smoothSolver:  Solving for Ux, Initial residual = 0.00873044, Final residual = 0.000335479, No Iterations 2
smoothSolver:  Solving for Uy, Initial residual = 0.0617849, Final residual = 0.00272399, No Iterations 2
smoothSolver:  Solving for Uz, Initial residual = 0.10988, Final residual = 0.00369612, No Iterations 2
GAMG:  Solving for p, Initial residual = 0.233331, Final residual = 0.0110457, No Iterations 18
GAMG:  Solving for p, Initial residual = 0.163689, Final residual = 0.00718227, No Iterations 4
GAMG:  Solving for p, Initial residual = 0.0531303, Final residual = 0.00262852, No Iterations 14
time step continuity errors : sum local = 1.53983e-05, global = -2.78159e-06, cumulative = 1.56306e-07
smoothSolver:  Solving for epsilon, Initial residual = 0.0275183, Final residual = 0.000202712, No Iterations 1
smoothSolver:  Solving for k, Initial residual = 0.00795367, Final residual = 0.000665712, No Iterations 1
bounding k, min: -0.1323 max: 8.86698 average: 1.38892
ExecutionTime = 33.7237 s  ClockTime = 37 s

Time = 26s

smoothSolver:  Solving for Ux, Initial residual = 0.00854146, Final residual = 0.000302868, No Iterations 2
smoothSolver:  Solving for Uy, Initial residual = 0.0606044, Final residual = 0.0026076, No Iterations 2
smoothSolver:  Solving for Uz, Initial residual = 0.111021, Final residual = 0.0033786, No Iterations 2
GAMG:  Solving for p, Initial residual = 0.203652, Final residual = 0.00969967, No Iterations 17
GAMG:  Solving for p, Initial residual = 0.150297, Final residual = 0.00701676, No Iterations 4
GAMG:  Solving for p, Initial residual = 0.0504528, Final residual = 0.00229412, No Iterations 14
time step continuity errors : sum local = 1.18479e-05, global = -1.60199e-06, cumulative = -1.44568e-06
smoothSolver:  Solving for epsilon, Initial residual = 0.0278471, Final residual = 0.000208168, No Iterations 1
smoothSolver:  Solving for k, Initial residual = 0.00767142, Final residual = 0.000657954, No Iterations 1
bounding k, min: -0.108514 max: 8.7434 average: 1.38243
ExecutionTime = 34.6797 s  ClockTime = 38 s

Time = 27s

smoothSolver:  Solving for Ux, Initial residual = 0.00828719, Final residual = 0.000277288, No Iterations 2
smoothSolver:  Solving for Uy, Initial residual = 0.0582224, Final residual = 0.0026386, No Iterations 2
smoothSolver:  Solving for Uz, Initial residual = 0.105723, Final residual = 0.00323081, No Iterations 2
GAMG:  Solving for p, Initial residual = 0.185923, Final residual = 0.009188, No Iterations 16
GAMG:  Solving for p, Initial residual = 0.177183, Final residual = 0.00881146, No Iterations 4
GAMG:  Solving for p, Initial residual = 0.0593554, Final residual = 0.00264173, No Iterations 13
time step continuity errors : sum local = 1.26839e-05, global = -2.26084e-06, cumulative = -3.70652e-06
smoothSolver:  Solving for epsilon, Initial residual = 0.0286543, Final residual = 0.000218139, No Iterations 1
smoothSolver:  Solving for k, Initial residual = 0.00738864, Final residual = 0.000630456, No Iterations 1
bounding k, min: -0.0807347 max: 8.60645 average: 1.37589
ExecutionTime = 35.6012 s  ClockTime = 39 s

Time = 28s

smoothSolver:  Solving for Ux, Initial residual = 0.00727686, Final residual = 0.000263019, No Iterations 2
smoothSolver:  Solving for Uy, Initial residual = 0.0564758, Final residual = 0.00270691, No Iterations 2
smoothSolver:  Solving for Uz, Initial residual = 0.101828, Final residual = 0.00329359, No Iterations 2
GAMG:  Solving for p, Initial residual = 0.180939, Final residual = 0.00825969, No Iterations 19
GAMG:  Solving for p, Initial residual = 0.202161, Final residual = 0.00986775, No Iterations 3
GAMG:  Solving for p, Initial residual = 0.0614671, Final residual = 0.00305014, No Iterations 12
time step continuity errors : sum local = 1.44716e-05, global = -2.64624e-06, cumulative = -6.35276e-06
smoothSolver:  Solving for epsilon, Initial residual = 0.0291185, Final residual = 0.000219581, No Iterations 1
smoothSolver:  Solving for k, Initial residual = 0.00710582, Final residual = 0.000611376, No Iterations 1
bounding k, min: -0.0586231 max: 8.47717 average: 1.37146
ExecutionTime = 36.5384 s  ClockTime = 40 s

Time = 29s

smoothSolver:  Solving for Ux, Initial residual = 0.0063128, Final residual = 0.000258206, No Iterations 2
smoothSolver:  Solving for Uy, Initial residual = 0.057595, Final residual = 0.0027372, No Iterations 2
smoothSolver:  Solving for Uz, Initial residual = 0.0966393, Final residual = 0.00319726, No Iterations 2
GAMG:  Solving for p, Initial residual = 0.171, Final residual = 0.00814744, No Iterations 17
GAMG:  Solving for p, Initial residual = 0.144968, Final residual = 0.00700976, No Iterations 4
GAMG:  Solving for p, Initial residual = 0.045398, Final residual = 0.00215011, No Iterations 16
time step continuity errors : sum local = 9.99173e-06, global = 1.7749e-06, cumulative = -4.57785e-06
smoothSolver:  Solving for epsilon, Initial residual = 0.0300528, Final residual = 0.000225066, No Iterations 1
smoothSolver:  Solving for k, Initial residual = 0.00665462, Final residual = 0.000587392, No Iterations 1
bounding k, min: -0.0452231 max: 8.37196 average: 1.36947
ExecutionTime = 37.5286 s  ClockTime = 41 s

Time = 30s

smoothSolver:  Solving for Ux, Initial residual = 0.00588503, Final residual = 0.000260684, No Iterations 2
smoothSolver:  Solving for Uy, Initial residual = 0.0561746, Final residual = 0.00270514, No Iterations 2
smoothSolver:  Solving for Uz, Initial residual = 0.0902871, Final residual = 0.00300259, No Iterations 2
GAMG:  Solving for p, Initial residual = 0.16041, Final residual = 0.00788102, No Iterations 13
GAMG:  Solving for p, Initial residual = 0.103586, Final residual = 0.00442409, No Iterations 6
GAMG:  Solving for p, Initial residual = 0.0360931, Final residual = 0.00171761, No Iterations 14
time step continuity errors : sum local = 7.5363e-06, global = 1.07543e-06, cumulative = -3.50242e-06
smoothSolver:  Solving for epsilon, Initial residual = 0.0304007, Final residual = 0.000225085, No Iterations 1
smoothSolver:  Solving for k, Initial residual = 0.0066628, Final residual = 0.000589879, No Iterations 1
bounding k, min: -0.0358924 max: 8.29265 average: 1.36918
ExecutionTime = 38.4485 s  ClockTime = 42 s

Time = 31s

smoothSolver:  Solving for Ux, Initial residual = 0.00562705, Final residual = 0.000259778, No Iterations 2
smoothSolver:  Solving for Uy, Initial residual = 0.0531784, Final residual = 0.00263037, No Iterations 2
smoothSolver:  Solving for Uz, Initial residual = 0.0876051, Final residual = 0.00299408, No Iterations 2
GAMG:  Solving for p, Initial residual = 0.15323, Final residual = 0.00755812, No Iterations 12
GAMG:  Solving for p, Initial residual = 0.116309, Final residual = 0.00515431, No Iterations 5
GAMG:  Solving for p, Initial residual = 0.0413599, Final residual = 0.00194566, No Iterations 16
time step continuity errors : sum local = 7.91225e-06, global = 1.31413e-06, cumulative = -2.18829e-06
smoothSolver:  Solving for epsilon, Initial residual = 0.0310472, Final residual = 0.000231809, No Iterations 1
smoothSolver:  Solving for k, Initial residual = 0.00665701, Final residual = 0.000578677, No Iterations 1
bounding k, min: -0.0254353 max: 8.22955 average: 1.36919
ExecutionTime = 39.3699 s  ClockTime = 43 s

Time = 32s

smoothSolver:  Solving for Ux, Initial residual = 0.00548636, Final residual = 0.000248585, No Iterations 2
smoothSolver:  Solving for Uy, Initial residual = 0.0479101, Final residual = 0.00249778, No Iterations 2
smoothSolver:  Solving for Uz, Initial residual = 0.0878166, Final residual = 0.00289478, No Iterations 2
GAMG:  Solving for p, Initial residual = 0.153601, Final residual = 0.00692036, No Iterations 15
GAMG:  Solving for p, Initial residual = 0.131269, Final residual = 0.00639515, No Iterations 4
GAMG:  Solving for p, Initial residual = 0.0460129, Final residual = 0.00214355, No Iterations 19
time step continuity errors : sum local = 7.99824e-06, global = 1.47445e-06, cumulative = -7.1384e-07
smoothSolver:  Solving for epsilon, Initial residual = 0.0312143, Final residual = 0.000232695, No Iterations 1
smoothSolver:  Solving for k, Initial residual = 0.00627403, Final residual = 0.000566492, No Iterations 1
bounding k, min: -0.00994041 max: 8.16966 average: 1.3684
ExecutionTime = 40.376 s  ClockTime = 44 s

Time = 33s

smoothSolver:  Solving for Ux, Initial residual = 0.00524874, Final residual = 0.00023404, No Iterations 2
smoothSolver:  Solving for Uy, Initial residual = 0.043797, Final residual = 0.00240307, No Iterations 2
smoothSolver:  Solving for Uz, Initial residual = 0.0863649, Final residual = 0.00279477, No Iterations 2
GAMG:  Solving for p, Initial residual = 0.156336, Final residual = 0.00664483, No Iterations 13
GAMG:  Solving for p, Initial residual = 0.113148, Final residual = 0.00514865, No Iterations 5
GAMG:  Solving for p, Initial residual = 0.0397252, Final residual = 0.00194489, No Iterations 16
time step continuity errors : sum local = 6.49421e-06, global = -1.37364e-06, cumulative = -2.08748e-06
smoothSolver:  Solving for epsilon, Initial residual = 0.0316482, Final residual = 0.000237617, No Iterations 1
smoothSolver:  Solving for k, Initial residual = 0.00597055, Final residual = 0.000548113, No Iterations 1
ExecutionTime = 41.3083 s  ClockTime = 45 s

Time = 34s

smoothSolver:  Solving for Ux, Initial residual = 0.00498103, Final residual = 0.000221532, No Iterations 2
smoothSolver:  Solving for Uy, Initial residual = 0.0456347, Final residual = 0.00243079, No Iterations 2
smoothSolver:  Solving for Uz, Initial residual = 0.087239, Final residual = 0.00284649, No Iterations 2
GAMG:  Solving for p, Initial residual = 0.158905, Final residual = 0.00768207, No Iterations 11
GAMG:  Solving for p, Initial residual = 0.10108, Final residual = 0.00421159, No Iterations 6
GAMG:  Solving for p, Initial residual = 0.0356454, Final residual = 0.00162635, No Iterations 12
time step continuity errors : sum local = 5.17182e-06, global = 7.88664e-07, cumulative = -1.29881e-06
smoothSolver:  Solving for epsilon, Initial residual = 0.0320083, Final residual = 0.000241744, No Iterations 1
smoothSolver:  Solving for k, Initial residual = 0.00591649, Final residual = 0.000546955, No Iterations 1
bounding k, min: -0.024921 max: 8.10876 average: 1.3642
ExecutionTime = 42.1596 s  ClockTime = 46 s

Time = 35s

smoothSolver:  Solving for Ux, Initial residual = 0.00454851, Final residual = 0.000211512, No Iterations 2
smoothSolver:  Solving for Uy, Initial residual = 0.0494928, Final residual = 0.00257403, No Iterations 2
smoothSolver:  Solving for Uz, Initial residual = 0.0892215, Final residual = 0.00295023, No Iterations 2
GAMG:  Solving for p, Initial residual = 0.157903, Final residual = 0.00757228, No Iterations 11
GAMG:  Solving for p, Initial residual = 0.109051, Final residual = 0.00504191, No Iterations 5
GAMG:  Solving for p, Initial residual = 0.0376244, Final residual = 0.00175802, No Iterations 12
time step continuity errors : sum local = 5.99835e-06, global = -1.06608e-06, cumulative = -2.3649e-06
smoothSolver:  Solving for epsilon, Initial residual = 0.0328333, Final residual = 0.000250219, No Iterations 1
smoothSolver:  Solving for k, Initial residual = 0.00574884, Final residual = 0.000533893, No Iterations 1
ExecutionTime = 42.9886 s  ClockTime = 46 s

Time = 36s

smoothSolver:  Solving for Ux, Initial residual = 0.00417612, Final residual = 0.000203031, No Iterations 2
smoothSolver:  Solving for Uy, Initial residual = 0.0500948, Final residual = 0.00268014, No Iterations 2
smoothSolver:  Solving for Uz, Initial residual = 0.0883002, Final residual = 0.00289857, No Iterations 2
GAMG:  Solving for p, Initial residual = 0.148463, Final residual = 0.0068665, No Iterations 10
GAMG:  Solving for p, Initial residual = 0.0995987, Final residual = 0.00466711, No Iterations 4
GAMG:  Solving for p, Initial residual = 0.0329686, Final residual = 0.00162517, No Iterations 14
time step continuity errors : sum local = 5.88173e-06, global = -9.88313e-07, cumulative = -3.35321e-06
smoothSolver:  Solving for epsilon, Initial residual = 0.0332358, Final residual = 0.000253588, No Iterations 1
smoothSolver:  Solving for k, Initial residual = 0.00561507, Final residual = 0.000526739, No Iterations 1
ExecutionTime = 43.8171 s  ClockTime = 47 s

Time = 37s

smoothSolver:  Solving for Ux, Initial residual = 0.0040522, Final residual = 0.000198412, No Iterations 2
smoothSolver:  Solving for Uy, Initial residual = 0.047349, Final residual = 0.0026805, No Iterations 2
smoothSolver:  Solving for Uz, Initial residual = 0.0823445, Final residual = 0.00273785, No Iterations 2
GAMG:  Solving for p, Initial residual = 0.135023, Final residual = 0.00604704, No Iterations 11
GAMG:  Solving for p, Initial residual = 0.0755043, Final residual = 0.0037258, No Iterations 5
GAMG:  Solving for p, Initial residual = 0.0254334, Final residual = 0.00117725, No Iterations 13
time step continuity errors : sum local = 4.21191e-06, global = -7.20978e-07, cumulative = -4.07419e-06
smoothSolver:  Solving for epsilon, Initial residual = 0.0339395, Final residual = 0.000258838, No Iterations 1
smoothSolver:  Solving for k, Initial residual = 0.00529357, Final residual = 0.000510591, No Iterations 1
ExecutionTime = 44.6623 s  ClockTime = 48 s

Time = 38s

smoothSolver:  Solving for Ux, Initial residual = 0.0040671, Final residual = 0.000196562, No Iterations 2
smoothSolver:  Solving for Uy, Initial residual = 0.0439126, Final residual = 0.0026287, No Iterations 2
smoothSolver:  Solving for Uz, Initial residual = 0.0758231, Final residual = 0.00256949, No Iterations 2
GAMG:  Solving for p, Initial residual = 0.124564, Final residual = 0.00507223, No Iterations 11
GAMG:  Solving for p, Initial residual = 0.0680161, Final residual = 0.00328836, No Iterations 5
GAMG:  Solving for p, Initial residual = 0.0234424, Final residual = 0.00114637, No Iterations 10
time step continuity errors : sum local = 3.79167e-06, global = 6.63754e-07, cumulative = -3.41043e-06
smoothSolver:  Solving for epsilon, Initial residual = 0.03417, Final residual = 0.000260211, No Iterations 1
smoothSolver:  Solving for k, Initial residual = 0.00512014, Final residual = 0.000501763, No Iterations 1
ExecutionTime = 45.4572 s  ClockTime = 49 s

Time = 39s

smoothSolver:  Solving for Ux, Initial residual = 0.00390858, Final residual = 0.000193381, No Iterations 2
smoothSolver:  Solving for Uy, Initial residual = 0.0432867, Final residual = 0.00259783, No Iterations 2
smoothSolver:  Solving for Uz, Initial residual = 0.0737311, Final residual = 0.00257387, No Iterations 2
GAMG:  Solving for p, Initial residual = 0.120506, Final residual = 0.00600369, No Iterations 8
GAMG:  Solving for p, Initial residual = 0.0704441, Final residual = 0.00312971, No Iterations 6
GAMG:  Solving for p, Initial residual = 0.0255052, Final residual = 0.00125435, No Iterations 14
time step continuity errors : sum local = 3.80529e-06, global = 6.11305e-07, cumulative = -2.79913e-06
smoothSolver:  Solving for epsilon, Initial residual = 0.034522, Final residual = 0.000263457, No Iterations 1
smoothSolver:  Solving for k, Initial residual = 0.00497876, Final residual = 0.000487651, No Iterations 1
ExecutionTime = 46.2858 s  ClockTime = 50 s

Time = 40s

smoothSolver:  Solving for Ux, Initial residual = 0.00361921, Final residual = 0.000185786, No Iterations 2
smoothSolver:  Solving for Uy, Initial residual = 0.0464668, Final residual = 0.00263335, No Iterations 2
smoothSolver:  Solving for Uz, Initial residual = 0.0766101, Final residual = 0.00263599, No Iterations 2
GAMG:  Solving for p, Initial residual = 0.120992, Final residual = 0.00561778, No Iterations 9
GAMG:  Solving for p, Initial residual = 0.0769592, Final residual = 0.00322487, No Iterations 6
GAMG:  Solving for p, Initial residual = 0.0282263, Final residual = 0.00138092, No Iterations 18
time step continuity errors : sum local = 3.89979e-06, global = 6.30064e-07, cumulative = -2.16907e-06
smoothSolver:  Solving for epsilon, Initial residual = 0.0347033, Final residual = 0.000264396, No Iterations 1
smoothSolver:  Solving for k, Initial residual = 0.00481263, Final residual = 0.000476548, No Iterations 1
ExecutionTime = 47.1993 s  ClockTime = 51 s

Time = 41s

smoothSolver:  Solving for Ux, Initial residual = 0.00346444, Final residual = 0.000177031, No Iterations 2
smoothSolver:  Solving for Uy, Initial residual = 0.0497363, Final residual = 0.00271846, No Iterations 2
smoothSolver:  Solving for Uz, Initial residual = 0.077654, Final residual = 0.00264671, No Iterations 2
GAMG:  Solving for p, Initial residual = 0.122716, Final residual = 0.00610744, No Iterations 9
GAMG:  Solving for p, Initial residual = 0.0644668, Final residual = 0.0030246, No Iterations 8
GAMG:  Solving for p, Initial residual = 0.0264105, Final residual = 0.00127135, No Iterations 16
time step continuity errors : sum local = 3.51352e-06, global = 5.48019e-07, cumulative = -1.62105e-06
smoothSolver:  Solving for epsilon, Initial residual = 0.035107, Final residual = 0.000267282, No Iterations 1
smoothSolver:  Solving for k, Initial residual = 0.00458826, Final residual = 6.62408e-05, No Iterations 2
ExecutionTime = 48.1191 s  ClockTime = 52 s

Time = 42s

smoothSolver:  Solving for Ux, Initial residual = 0.00333451, Final residual = 0.000168204, No Iterations 2
smoothSolver:  Solving for Uy, Initial residual = 0.0507098, Final residual = 0.00280686, No Iterations 2
smoothSolver:  Solving for Uz, Initial residual = 0.0759506, Final residual = 0.00261492, No Iterations 2
GAMG:  Solving for p, Initial residual = 0.121911, Final residual = 0.00559033, No Iterations 9
GAMG:  Solving for p, Initial residual = 0.0655684, Final residual = 0.00320467, No Iterations 5
GAMG:  Solving for p, Initial residual = 0.0233262, Final residual = 0.0010517, No Iterations 11
time step continuity errors : sum local = 3.00854e-06, global = 4.75755e-07, cumulative = -1.14529e-06
smoothSolver:  Solving for epsilon, Initial residual = 0.0353761, Final residual = 0.000271728, No Iterations 1
smoothSolver:  Solving for k, Initial residual = 0.0043634, Final residual = 6.43205e-05, No Iterations 2
ExecutionTime = 48.9014 s  ClockTime = 52 s

Time = 43s

smoothSolver:  Solving for Ux, Initial residual = 0.00322603, Final residual = 0.000161699, No Iterations 2
smoothSolver:  Solving for Uy, Initial residual = 0.049445, Final residual = 0.00284974, No Iterations 2
smoothSolver:  Solving for Uz, Initial residual = 0.0714219, Final residual = 0.00258159, No Iterations 2
GAMG:  Solving for p, Initial residual = 0.118012, Final residual = 0.00465266, No Iterations 9
GAMG:  Solving for p, Initial residual = 0.0666104, Final residual = 0.00274295, No Iterations 4
GAMG:  Solving for p, Initial residual = 0.0221678, Final residual = 0.00109444, No Iterations 8
time step continuity errors : sum local = 3.233e-06, global = -3.27722e-07, cumulative = -1.47301e-06
smoothSolver:  Solving for epsilon, Initial residual = 0.0359079, Final residual = 0.000276096, No Iterations 1
smoothSolver:  Solving for k, Initial residual = 0.0041937, Final residual = 6.15498e-05, No Iterations 2
ExecutionTime = 49.6159 s  ClockTime = 53 s

Time = 44s

smoothSolver:  Solving for Ux, Initial residual = 0.00308272, Final residual = 0.000157318, No Iterations 2
smoothSolver:  Solving for Uy, Initial residual = 0.0479692, Final residual = 0.00285047, No Iterations 2
smoothSolver:  Solving for Uz, Initial residual = 0.068512, Final residual = 0.00249628, No Iterations 2
GAMG:  Solving for p, Initial residual = 0.111293, Final residual = 0.00489227, No Iterations 9
GAMG:  Solving for p, Initial residual = 0.0613295, Final residual = 0.00278531, No Iterations 4
GAMG:  Solving for p, Initial residual = 0.0201419, Final residual = 0.000852389, No Iterations 12
time step continuity errors : sum local = 2.5312e-06, global = -2.70417e-07, cumulative = -1.74343e-06
smoothSolver:  Solving for epsilon, Initial residual = 0.0362165, Final residual = 0.000278491, No Iterations 1
smoothSolver:  Solving for k, Initial residual = 0.00408558, Final residual = 5.96244e-05, No Iterations 2
ExecutionTime = 50.3985 s  ClockTime = 54 s

Time = 45s

smoothSolver:  Solving for Ux, Initial residual = 0.00288672, Final residual = 0.000154202, No Iterations 2
smoothSolver:  Solving for Uy, Initial residual = 0.0481987, Final residual = 0.00284017, No Iterations 2
smoothSolver:  Solving for Uz, Initial residual = 0.0684232, Final residual = 0.00241874, No Iterations 2
GAMG:  Solving for p, Initial residual = 0.103087, Final residual = 0.00480182, No Iterations 8
GAMG:  Solving for p, Initial residual = 0.053724, Final residual = 0.00220323, No Iterations 5
GAMG:  Solving for p, Initial residual = 0.0178341, Final residual = 0.000817086, No Iterations 10
time step continuity errors : sum local = 2.37664e-06, global = -2.32066e-07, cumulative = -1.9755e-06
smoothSolver:  Solving for epsilon, Initial residual = 0.0366914, Final residual = 0.000282263, No Iterations 1
smoothSolver:  Solving for k, Initial residual = 0.00392454, Final residual = 5.73003e-05, No Iterations 2
ExecutionTime = 51.1469 s  ClockTime = 55 s

Time = 46s

smoothSolver:  Solving for Ux, Initial residual = 0.00271448, Final residual = 0.000150903, No Iterations 2
smoothSolver:  Solving for Uy, Initial residual = 0.0493745, Final residual = 0.00284008, No Iterations 2
smoothSolver:  Solving for Uz, Initial residual = 0.0672971, Final residual = 0.00236623, No Iterations 2
GAMG:  Solving for p, Initial residual = 0.0976463, Final residual = 0.00429971, No Iterations 7
GAMG:  Solving for p, Initial residual = 0.0496755, Final residual = 0.00229554, No Iterations 4
GAMG:  Solving for p, Initial residual = 0.0162756, Final residual = 0.000671572, No Iterations 10
time step continuity errors : sum local = 1.87211e-06, global = 2.03631e-07, cumulative = -1.77186e-06
smoothSolver:  Solving for epsilon, Initial residual = 0.0368727, Final residual = 0.000283019, No Iterations 1
smoothSolver:  Solving for k, Initial residual = 0.00374022, Final residual = 5.52738e-05, No Iterations 2
ExecutionTime = 51.8601 s  ClockTime = 55 s

Time = 47s

smoothSolver:  Solving for Ux, Initial residual = 0.00258855, Final residual = 0.000146737, No Iterations 2
smoothSolver:  Solving for Uy, Initial residual = 0.0491824, Final residual = 0.00283234, No Iterations 2
smoothSolver:  Solving for Uz, Initial residual = 0.0634216, Final residual = 0.00232069, No Iterations 2
GAMG:  Solving for p, Initial residual = 0.0951047, Final residual = 0.00367454, No Iterations 9
GAMG:  Solving for p, Initial residual = 0.0517791, Final residual = 0.00217742, No Iterations 4
GAMG:  Solving for p, Initial residual = 0.0165532, Final residual = 0.00071334, No Iterations 12
time step continuity errors : sum local = 1.9078e-06, global = 1.9486e-07, cumulative = -1.577e-06
smoothSolver:  Solving for epsilon, Initial residual = 0.0371729, Final residual = 0.000284876, No Iterations 1
smoothSolver:  Solving for k, Initial residual = 0.00356885, Final residual = 5.30544e-05, No Iterations 2
ExecutionTime = 52.641 s  ClockTime = 56 s

Time = 48s

smoothSolver:  Solving for Ux, Initial residual = 0.00251919, Final residual = 0.00014169, No Iterations 2
smoothSolver:  Solving for Uy, Initial residual = 0.0473774, Final residual = 0.00281699, No Iterations 2
smoothSolver:  Solving for Uz, Initial residual = 0.060072, Final residual = 0.00228128, No Iterations 2
GAMG:  Solving for p, Initial residual = 0.0928791, Final residual = 0.00411692, No Iterations 9
GAMG:  Solving for p, Initial residual = 0.0496257, Final residual = 0.00218292, No Iterations 6
GAMG:  Solving for p, Initial residual = 0.0175664, Final residual = 0.000855711, No Iterations 14
time step continuity errors : sum local = 2.22533e-06, global = 2.98226e-07, cumulative = -1.27878e-06
smoothSolver:  Solving for epsilon, Initial residual = 0.0373637, Final residual = 0.000286209, No Iterations 1
smoothSolver:  Solving for k, Initial residual = 0.00344041, Final residual = 5.13629e-05, No Iterations 2
ExecutionTime = 53.4913 s  ClockTime = 57 s

Time = 49s

smoothSolver:  Solving for Ux, Initial residual = 0.00245915, Final residual = 0.000136114, No Iterations 2
smoothSolver:  Solving for Uy, Initial residual = 0.045236, Final residual = 0.00279974, No Iterations 2
smoothSolver:  Solving for Uz, Initial residual = 0.0585365, Final residual = 0.00224845, No Iterations 2
GAMG:  Solving for p, Initial residual = 0.0898924, Final residual = 0.00367558, No Iterations 9
GAMG:  Solving for p, Initial residual = 0.0476374, Final residual = 0.00202689, No Iterations 6
GAMG:  Solving for p, Initial residual = 0.0171499, Final residual = 0.000795426, No Iterations 18
time step continuity errors : sum local = 2.05321e-06, global = 3.18877e-07, cumulative = -9.59902e-07
smoothSolver:  Solving for epsilon, Initial residual = 0.0376496, Final residual = 0.000289078, No Iterations 1
smoothSolver:  Solving for k, Initial residual = 0.00332946, Final residual = 4.97035e-05, No Iterations 2
ExecutionTime = 54.4087 s  ClockTime = 58 s

Time = 50s

smoothSolver:  Solving for Ux, Initial residual = 0.00234414, Final residual = 0.000130719, No Iterations 2
smoothSolver:  Solving for Uy, Initial residual = 0.0438459, Final residual = 0.00279041, No Iterations 2
smoothSolver:  Solving for Uz, Initial residual = 0.0569809, Final residual = 0.00221069, No Iterations 2
GAMG:  Solving for p, Initial residual = 0.0879976, Final residual = 0.00432884, No Iterations 7
GAMG:  Solving for p, Initial residual = 0.0457414, Final residual = 0.00202485, No Iterations 6
GAMG:  Solving for p, Initial residual = 0.0172653, Final residual = 0.000782402, No Iterations 15
time step continuity errors : sum local = 2.00596e-06, global = 3.58215e-07, cumulative = -6.01687e-07
smoothSolver:  Solving for epsilon, Initial residual = 0.0379054, Final residual = 0.000291558, No Iterations 1
smoothSolver:  Solving for k, Initial residual = 0.00323072, Final residual = 4.80021e-05, No Iterations 2
ExecutionTime = 55.2425 s  ClockTime = 59 s

Time = 51s

smoothSolver:  Solving for Ux, Initial residual = 0.00217841, Final residual = 0.00012634, No Iterations 2
smoothSolver:  Solving for Uy, Initial residual = 0.0429256, Final residual = 0.00278126, No Iterations 2
smoothSolver:  Solving for Uz, Initial residual = 0.0548167, Final residual = 0.00215476, No Iterations 2
GAMG:  Solving for p, Initial residual = 0.0852587, Final residual = 0.004241, No Iterations 8
GAMG:  Solving for p, Initial residual = 0.0469146, Final residual = 0.00187165, No Iterations 5
GAMG:  Solving for p, Initial residual = 0.0164351, Final residual = 0.000779873, No Iterations 8
time step continuity errors : sum local = 1.98637e-06, global = -2.52614e-07, cumulative = -8.54301e-07
smoothSolver:  Solving for epsilon, Initial residual = 0.0381807, Final residual = 0.000294394, No Iterations 1
smoothSolver:  Solving for k, Initial residual = 0.00312166, Final residual = 4.66063e-05, No Iterations 2
ExecutionTime = 55.9561 s  ClockTime = 59 s

Time = 52s

smoothSolver:  Solving for Ux, Initial residual = 0.00201578, Final residual = 0.000122834, No Iterations 2
smoothSolver:  Solving for Uy, Initial residual = 0.0419128, Final residual = 0.00276601, No Iterations 2
smoothSolver:  Solving for Uz, Initial residual = 0.0538496, Final residual = 0.00210368, No Iterations 2
GAMG:  Solving for p, Initial residual = 0.0809266, Final residual = 0.00382911, No Iterations 7
GAMG:  Solving for p, Initial residual = 0.0453418, Final residual = 0.00203366, No Iterations 4
GAMG:  Solving for p, Initial residual = 0.0150814, Final residual = 0.000628441, No Iterations 10
time step continuity errors : sum local = 1.56472e-06, global = -1.34554e-07, cumulative = -9.88855e-07
smoothSolver:  Solving for epsilon, Initial residual = 0.0384491, Final residual = 0.000296811, No Iterations 1
smoothSolver:  Solving for k, Initial residual = 0.00299419, Final residual = 4.53452e-05, No Iterations 2
ExecutionTime = 56.6716 s  ClockTime = 60 s

Time = 53s

smoothSolver:  Solving for Ux, Initial residual = 0.00190258, Final residual = 0.000119761, No Iterations 2
smoothSolver:  Solving for Uy, Initial residual = 0.0406791, Final residual = 0.00274628, No Iterations 2
smoothSolver:  Solving for Uz, Initial residual = 0.0520883, Final residual = 0.0020541, No Iterations 2
GAMG:  Solving for p, Initial residual = 0.0755888, Final residual = 0.00351389, No Iterations 7
GAMG:  Solving for p, Initial residual = 0.0455305, Final residual = 0.00223017, No Iterations 3
GAMG:  Solving for p, Initial residual = 0.0145825, Final residual = 0.000688015, No Iterations 7
time step continuity errors : sum local = 1.67997e-06, global = -1.97477e-07, cumulative = -1.18633e-06
smoothSolver:  Solving for epsilon, Initial residual = 0.0386877, Final residual = 0.000299054, No Iterations 1
smoothSolver:  Solving for k, Initial residual = 0.00287655, Final residual = 4.38833e-05, No Iterations 2
ExecutionTime = 57.317 s  ClockTime = 61 s

Time = 54s

smoothSolver:  Solving for Ux, Initial residual = 0.00181893, Final residual = 0.000116635, No Iterations 2
smoothSolver:  Solving for Uy, Initial residual = 0.0397695, Final residual = 0.00273164, No Iterations 2
smoothSolver:  Solving for Uz, Initial residual = 0.0490981, Final residual = 0.00199604, No Iterations 2
GAMG:  Solving for p, Initial residual = 0.0714652, Final residual = 0.00328501, No Iterations 7
GAMG:  Solving for p, Initial residual = 0.0437524, Final residual = 0.00180355, No Iterations 4
GAMG:  Solving for p, Initial residual = 0.0145318, Final residual = 0.00067396, No Iterations 8
time step continuity errors : sum local = 1.60662e-06, global = 1.47123e-07, cumulative = -1.03921e-06
smoothSolver:  Solving for epsilon, Initial residual = 0.0389276, Final residual = 0.000301166, No Iterations 1
smoothSolver:  Solving for k, Initial residual = 0.00276681, Final residual = 4.28096e-05, No Iterations 2
ExecutionTime = 57.996 s  ClockTime = 62 s

Time = 55s

smoothSolver:  Solving for Ux, Initial residual = 0.00174065, Final residual = 0.000113152, No Iterations 2
smoothSolver:  Solving for Uy, Initial residual = 0.0397634, Final residual = 0.00273395, No Iterations 2
smoothSolver:  Solving for Uz, Initial residual = 0.0455225, Final residual = 0.00193388, No Iterations 2
GAMG:  Solving for p, Initial residual = 0.0691337, Final residual = 0.00279099, No Iterations 9
GAMG:  Solving for p, Initial residual = 0.0442905, Final residual = 0.00179612, No Iterations 4
GAMG:  Solving for p, Initial residual = 0.0145564, Final residual = 0.000688235, No Iterations 10
time step continuity errors : sum local = 1.60551e-06, global = 1.4943e-07, cumulative = -8.89778e-07
smoothSolver:  Solving for epsilon, Initial residual = 0.0391406, Final residual = 0.000302677, No Iterations 1
smoothSolver:  Solving for k, Initial residual = 0.00266714, Final residual = 4.15503e-05, No Iterations 2
ExecutionTime = 58.7433 s  ClockTime = 62 s

Time = 56s

smoothSolver:  Solving for Ux, Initial residual = 0.00166017, Final residual = 0.00010942, No Iterations 2
smoothSolver:  Solving for Uy, Initial residual = 0.0404338, Final residual = 0.00275085, No Iterations 2
smoothSolver:  Solving for Uz, Initial residual = 0.0435537, Final residual = 0.00189049, No Iterations 2
GAMG:  Solving for p, Initial residual = 0.0671855, Final residual = 0.00276531, No Iterations 9
GAMG:  Solving for p, Initial residual = 0.0420582, Final residual = 0.00192449, No Iterations 4
GAMG:  Solving for p, Initial residual = 0.0141757, Final residual = 0.0006629, No Iterations 14
time step continuity errors : sum local = 1.53112e-06, global = 1.99608e-07, cumulative = -6.9017e-07
smoothSolver:  Solving for epsilon, Initial residual = 0.0393275, Final residual = 0.000304792, No Iterations 1
smoothSolver:  Solving for k, Initial residual = 0.00257558, Final residual = 4.03791e-05, No Iterations 2
ExecutionTime = 59.5583 s  ClockTime = 63 s

Time = 57s

smoothSolver:  Solving for Ux, Initial residual = 0.00158766, Final residual = 0.000105834, No Iterations 2
smoothSolver:  Solving for Uy, Initial residual = 0.0408604, Final residual = 0.00276535, No Iterations 2
smoothSolver:  Solving for Uz, Initial residual = 0.0427153, Final residual = 0.00186559, No Iterations 2
GAMG:  Solving for p, Initial residual = 0.0638202, Final residual = 0.00301869, No Iterations 8
GAMG:  Solving for p, Initial residual = 0.0402139, Final residual = 0.00188216, No Iterations 5
GAMG:  Solving for p, Initial residual = 0.0144079, Final residual = 0.000674497, No Iterations 15
time step continuity errors : sum local = 1.54138e-06, global = 2.46932e-07, cumulative = -4.43238e-07
smoothSolver:  Solving for epsilon, Initial residual = 0.0395072, Final residual = 0.000306778, No Iterations 1
smoothSolver:  Solving for k, Initial residual = 0.002492, Final residual = 3.91628e-05, No Iterations 2
ExecutionTime = 60.3917 s  ClockTime = 64 s

Time = 58s

smoothSolver:  Solving for Ux, Initial residual = 0.00152497, Final residual = 0.000102721, No Iterations 2
smoothSolver:  Solving for Uy, Initial residual = 0.0402877, Final residual = 0.00276204, No Iterations 2
smoothSolver:  Solving for Uz, Initial residual = 0.0414078, Final residual = 0.00182857, No Iterations 2
GAMG:  Solving for p, Initial residual = 0.0596082, Final residual = 0.00249198, No Iterations 9
GAMG:  Solving for p, Initial residual = 0.0385256, Final residual = 0.00172021, No Iterations 5
GAMG:  Solving for p, Initial residual = 0.0138997, Final residual = 0.000693869, No Iterations 14
time step continuity errors : sum local = 1.56401e-06, global = 2.52467e-07, cumulative = -1.90772e-07
smoothSolver:  Solving for epsilon, Initial residual = 0.0396857, Final residual = 0.000309186, No Iterations 1
smoothSolver:  Solving for k, Initial residual = 0.00242031, Final residual = 3.81796e-05, No Iterations 2
ExecutionTime = 61.2248 s  ClockTime = 65 s

Time = 59s

smoothSolver:  Solving for Ux, Initial residual = 0.00147091, Final residual = 0.000100037, No Iterations 2
smoothSolver:  Solving for Uy, Initial residual = 0.0389456, Final residual = 0.00273585, No Iterations 2
smoothSolver:  Solving for Uz, Initial residual = 0.0392319, Final residual = 0.00177446, No Iterations 2
GAMG:  Solving for p, Initial residual = 0.056512, Final residual = 0.00233142, No Iterations 9
GAMG:  Solving for p, Initial residual = 0.0366079, Final residual = 0.00170453, No Iterations 4
GAMG:  Solving for p, Initial residual = 0.0126047, Final residual = 0.000586823, No Iterations 15
time step continuity errors : sum local = 1.29702e-06, global = 2.3573e-07, cumulative = 4.49587e-08
smoothSolver:  Solving for epsilon, Initial residual = 0.0398798, Final residual = 0.000310884, No Iterations 1
smoothSolver:  Solving for k, Initial residual = 0.00236795, Final residual = 3.7206e-05, No Iterations 2
ExecutionTime = 62.0574 s  ClockTime = 66 s

Time = 60s

smoothSolver:  Solving for Ux, Initial residual = 0.00142219, Final residual = 9.75217e-05, No Iterations 2
smoothSolver:  Solving for Uy, Initial residual = 0.0374964, Final residual = 0.00269518, No Iterations 2
smoothSolver:  Solving for Uz, Initial residual = 0.0366696, Final residual = 0.00173071, No Iterations 2
GAMG:  Solving for p, Initial residual = 0.0542745, Final residual = 0.0027052, No Iterations 7
GAMG:  Solving for p, Initial residual = 0.0348964, Final residual = 0.00164335, No Iterations 4
GAMG:  Solving for p, Initial residual = 0.0117481, Final residual = 0.000531005, No Iterations 12
time step continuity errors : sum local = 1.15034e-06, global = -1.6552e-07, cumulative = -1.20561e-07
smoothSolver:  Solving for epsilon, Initial residual = 0.0400702, Final residual = 0.000313251, No Iterations 1
smoothSolver:  Solving for k, Initial residual = 0.0023199, Final residual = 3.63271e-05, No Iterations 2
ExecutionTime = 62.8044 s  ClockTime = 66 s

Time = 61s

smoothSolver:  Solving for Ux, Initial residual = 0.00138419, Final residual = 9.49632e-05, No Iterations 2
smoothSolver:  Solving for Uy, Initial residual = 0.0365825, Final residual = 0.00265473, No Iterations 2
smoothSolver:  Solving for Uz, Initial residual = 0.0352991, Final residual = 0.0017003, No Iterations 2
GAMG:  Solving for p, Initial residual = 0.0509156, Final residual = 0.00211653, No Iterations 8
GAMG:  Solving for p, Initial residual = 0.0358124, Final residual = 0.00138618, No Iterations 4
GAMG:  Solving for p, Initial residual = 0.0118027, Final residual = 0.000589571, No Iterations 7
time step continuity errors : sum local = 1.25465e-06, global = -1.77173e-07, cumulative = -2.97734e-07
smoothSolver:  Solving for epsilon, Initial residual = 0.0402711, Final residual = 0.00031531, No Iterations 1
smoothSolver:  Solving for k, Initial residual = 0.00227372, Final residual = 3.52884e-05, No Iterations 2
ExecutionTime = 63.4834 s  ClockTime = 67 s

Time = 62s

smoothSolver:  Solving for Ux, Initial residual = 0.00136241, Final residual = 9.22111e-05, No Iterations 2
smoothSolver:  Solving for Uy, Initial residual = 0.0362907, Final residual = 0.00262337, No Iterations 2
smoothSolver:  Solving for Uz, Initial residual = 0.0338852, Final residual = 0.00166966, No Iterations 2
GAMG:  Solving for p, Initial residual = 0.0463411, Final residual = 0.00192934, No Iterations 9
GAMG:  Solving for p, Initial residual = 0.0364024, Final residual = 0.00140189, No Iterations 4
GAMG:  Solving for p, Initial residual = 0.0120975, Final residual = 0.000587401, No Iterations 8
time step continuity errors : sum local = 1.22817e-06, global = 1.4434e-07, cumulative = -1.53395e-07
smoothSolver:  Solving for epsilon, Initial residual = 0.0404486, Final residual = 0.000317222, No Iterations 1
smoothSolver:  Solving for k, Initial residual = 0.0022295, Final residual = 3.44688e-05, No Iterations 2
ExecutionTime = 64.196 s  ClockTime = 68 s

Time = 63s

smoothSolver:  Solving for Ux, Initial residual = 0.00134501, Final residual = 8.92787e-05, No Iterations 2
smoothSolver:  Solving for Uy, Initial residual = 0.0362654, Final residual = 0.00259962, No Iterations 2
smoothSolver:  Solving for Uz, Initial residual = 0.0326165, Final residual = 0.00163767, No Iterations 2
GAMG:  Solving for p, Initial residual = 0.0432751, Final residual = 0.00177874, No Iterations 11
GAMG:  Solving for p, Initial residual = 0.0376325, Final residual = 0.00148204, No Iterations 4
GAMG:  Solving for p, Initial residual = 0.0124462, Final residual = 0.000608623, No Iterations 10
time step continuity errors : sum local = 1.24877e-06, global = 1.39025e-07, cumulative = -1.43693e-08
smoothSolver:  Solving for epsilon, Initial residual = 0.0406618, Final residual = 0.000319629, No Iterations 1
smoothSolver:  Solving for k, Initial residual = 0.0021879, Final residual = 3.35988e-05, No Iterations 2
ExecutionTime = 64.9768 s  ClockTime = 69 s

Time = 64s

smoothSolver:  Solving for Ux, Initial residual = 0.00132977, Final residual = 8.62895e-05, No Iterations 2
smoothSolver:  Solving for Uy, Initial residual = 0.0363197, Final residual = 0.00258327, No Iterations 2
smoothSolver:  Solving for Uz, Initial residual = 0.0312375, Final residual = 0.00161447, No Iterations 2
GAMG:  Solving for p, Initial residual = 0.0416266, Final residual = 0.00184177, No Iterations 11
GAMG:  Solving for p, Initial residual = 0.0368378, Final residual = 0.00157293, No Iterations 4
GAMG:  Solving for p, Initial residual = 0.0122659, Final residual = 0.000601004, No Iterations 12
time step continuity errors : sum local = 1.21517e-06, global = 1.5179e-07, cumulative = 1.37421e-07
smoothSolver:  Solving for epsilon, Initial residual = 0.040866, Final residual = 0.000321308, No Iterations 1
smoothSolver:  Solving for k, Initial residual = 0.00215082, Final residual = 3.27824e-05, No Iterations 2
ExecutionTime = 65.7917 s  ClockTime = 69 s

Time = 65s

smoothSolver:  Solving for Ux, Initial residual = 0.00131804, Final residual = 8.34847e-05, No Iterations 2
smoothSolver:  Solving for Uy, Initial residual = 0.0362532, Final residual = 0.00256784, No Iterations 2
smoothSolver:  Solving for Uz, Initial residual = 0.0301637, Final residual = 0.00159281, No Iterations 2
GAMG:  Solving for p, Initial residual = 0.040046, Final residual = 0.0019322, No Iterations 11
GAMG:  Solving for p, Initial residual = 0.0364029, Final residual = 0.00166389, No Iterations 4
GAMG:  Solving for p, Initial residual = 0.0125917, Final residual = 0.000628653, No Iterations 9
time step continuity errors : sum local = 1.2495e-06, global = 2.10768e-07, cumulative = 3.48188e-07
smoothSolver:  Solving for epsilon, Initial residual = 0.0410874, Final residual = 0.000323654, No Iterations 1
smoothSolver:  Solving for k, Initial residual = 0.00211616, Final residual = 3.18134e-05, No Iterations 2
ExecutionTime = 66.5549 s  ClockTime = 70 s

Time = 66s

smoothSolver:  Solving for Ux, Initial residual = 0.00130433, Final residual = 8.09304e-05, No Iterations 2
smoothSolver:  Solving for Uy, Initial residual = 0.0360272, Final residual = 0.00254426, No Iterations 2
smoothSolver:  Solving for Uz, Initial residual = 0.0293434, Final residual = 0.00156496, No Iterations 2
GAMG:  Solving for p, Initial residual = 0.0372801, Final residual = 0.00167721, No Iterations 11
GAMG:  Solving for p, Initial residual = 0.033994, Final residual = 0.00152984, No Iterations 4
GAMG:  Solving for p, Initial residual = 0.0117273, Final residual = 0.000524889, No Iterations 13
time step continuity errors : sum local = 1.03277e-06, global = 1.76197e-07, cumulative = 5.24385e-07
smoothSolver:  Solving for epsilon, Initial residual = 0.0412773, Final residual = 0.000325423, No Iterations 1
smoothSolver:  Solving for k, Initial residual = 0.00208307, Final residual = 3.10204e-05, No Iterations 2
ExecutionTime = 67.3869 s  ClockTime = 71 s

Time = 67s

smoothSolver:  Solving for Ux, Initial residual = 0.00128556, Final residual = 7.84979e-05, No Iterations 2
smoothSolver:  Solving for Uy, Initial residual = 0.0357638, Final residual = 0.00250983, No Iterations 2
smoothSolver:  Solving for Uz, Initial residual = 0.02841, Final residual = 0.00152421, No Iterations 2
GAMG:  Solving for p, Initial residual = 0.0348767, Final residual = 0.00151552, No Iterations 11
GAMG:  Solving for p, Initial residual = 0.0320294, Final residual = 0.0015989, No Iterations 3
GAMG:  Solving for p, Initial residual = 0.0106597, Final residual = 0.000498445, No Iterations 12
time step continuity errors : sum local = 9.67998e-07, global = 1.45425e-07, cumulative = 6.6981e-07
smoothSolver:  Solving for epsilon, Initial residual = 0.0414975, Final residual = 0.000327657, No Iterations 1
smoothSolver:  Solving for k, Initial residual = 0.00205202, Final residual = 3.00831e-05, No Iterations 2
ExecutionTime = 68.1844 s  ClockTime = 72 s

Time = 68s

smoothSolver:  Solving for Ux, Initial residual = 0.00126307, Final residual = 7.61083e-05, No Iterations 2
smoothSolver:  Solving for Uy, Initial residual = 0.0354911, Final residual = 0.00247059, No Iterations 2
smoothSolver:  Solving for Uz, Initial residual = 0.0272937, Final residual = 0.00148202, No Iterations 2
GAMG:  Solving for p, Initial residual = 0.0330177, Final residual = 0.00151452, No Iterations 10
GAMG:  Solving for p, Initial residual = 0.0304118, Final residual = 0.00149332, No Iterations 3
GAMG:  Solving for p, Initial residual = 0.00996816, Final residual = 0.000460656, No Iterations 11
time step continuity errors : sum local = 8.80276e-07, global = 1.41542e-07, cumulative = 8.11352e-07
smoothSolver:  Solving for epsilon, Initial residual = 0.0417352, Final residual = 0.000329594, No Iterations 1
smoothSolver:  Solving for k, Initial residual = 0.00202322, Final residual = 2.91988e-05, No Iterations 2
ExecutionTime = 68.9475 s  ClockTime = 73 s

Time = 69s

smoothSolver:  Solving for Ux, Initial residual = 0.00124402, Final residual = 7.3696e-05, No Iterations 2
smoothSolver:  Solving for Uy, Initial residual = 0.0352305, Final residual = 0.00243272, No Iterations 2
smoothSolver:  Solving for Uz, Initial residual = 0.0260702, Final residual = 0.0014381, No Iterations 2
GAMG:  Solving for p, Initial residual = 0.0316087, Final residual = 0.00144297, No Iterations 10
GAMG:  Solving for p, Initial residual = 0.0301582, Final residual = 0.00148897, No Iterations 3
GAMG:  Solving for p, Initial residual = 0.0099941, Final residual = 0.000461162, No Iterations 9
time step continuity errors : sum local = 8.66831e-07, global = 1.20436e-07, cumulative = 9.31788e-07
smoothSolver:  Solving for epsilon, Initial residual = 0.0419691, Final residual = 0.000332114, No Iterations 1
smoothSolver:  Solving for k, Initial residual = 0.00199142, Final residual = 0.000198167, No Iterations 1
ExecutionTime = 69.6723 s  ClockTime = 73 s

Time = 70s

smoothSolver:  Solving for Ux, Initial residual = 0.00123278, Final residual = 7.1311e-05, No Iterations 2
smoothSolver:  Solving for Uy, Initial residual = 0.0349756, Final residual = 0.00239748, No Iterations 2
smoothSolver:  Solving for Uz, Initial residual = 0.0251396, Final residual = 0.00138842, No Iterations 2
GAMG:  Solving for p, Initial residual = 0.0295567, Final residual = 0.00125241, No Iterations 11
GAMG:  Solving for p, Initial residual = 0.0304587, Final residual = 0.00144433, No Iterations 3
GAMG:  Solving for p, Initial residual = 0.010107, Final residual = 0.000459579, No Iterations 9
time step continuity errors : sum local = 8.51416e-07, global = 1.14261e-07, cumulative = 1.04605e-06
smoothSolver:  Solving for epsilon, Initial residual = 0.0422225, Final residual = 0.000334173, No Iterations 1
smoothSolver:  Solving for k, Initial residual = 0.00195544, Final residual = 0.000193975, No Iterations 1
ExecutionTime = 70.4145 s  ClockTime = 74 s

Time = 71s

smoothSolver:  Solving for Ux, Initial residual = 0.00122707, Final residual = 6.89602e-05, No Iterations 2
smoothSolver:  Solving for Uy, Initial residual = 0.0348029, Final residual = 0.00236801, No Iterations 2
smoothSolver:  Solving for Uz, Initial residual = 0.0243253, Final residual = 0.00133596, No Iterations 2
GAMG:  Solving for p, Initial residual = 0.0273413, Final residual = 0.00133681, No Iterations 11
GAMG:  Solving for p, Initial residual = 0.0299778, Final residual = 0.00149469, No Iterations 3
GAMG:  Solving for p, Initial residual = 0.0100204, Final residual = 0.00042629, No Iterations 11
time step continuity errors : sum local = 7.80302e-07, global = 1.09575e-07, cumulative = 1.15562e-06
smoothSolver:  Solving for epsilon, Initial residual = 0.0424572, Final residual = 0.000336213, No Iterations 1
smoothSolver:  Solving for k, Initial residual = 0.00192137, Final residual = 0.000189883, No Iterations 1
ExecutionTime = 71.1897 s  ClockTime = 75 s

Time = 72s

smoothSolver:  Solving for Ux, Initial residual = 0.00122157, Final residual = 6.66973e-05, No Iterations 2
smoothSolver:  Solving for Uy, Initial residual = 0.0346064, Final residual = 0.00233928, No Iterations 2
smoothSolver:  Solving for Uz, Initial residual = 0.0235649, Final residual = 0.00128546, No Iterations 2
GAMG:  Solving for p, Initial residual = 0.0260437, Final residual = 0.00123876, No Iterations 12
GAMG:  Solving for p, Initial residual = 0.0296262, Final residual = 0.00136077, No Iterations 3
GAMG:  Solving for p, Initial residual = 0.00989859, Final residual = 0.000470233, No Iterations 8
time step continuity errors : sum local = 8.50073e-07, global = 1.06034e-07, cumulative = 1.26166e-06
smoothSolver:  Solving for epsilon, Initial residual = 0.0427258, Final residual = 0.000338413, No Iterations 1
smoothSolver:  Solving for k, Initial residual = 0.00189081, Final residual = 0.000186037, No Iterations 1
bounding k, min: -0.0122566 max: 7.94427 average: 1.36755
ExecutionTime = 71.9377 s  ClockTime = 76 s

Time = 73s

smoothSolver:  Solving for Ux, Initial residual = 0.00120897, Final residual = 6.45627e-05, No Iterations 2
smoothSolver:  Solving for Uy, Initial residual = 0.0341906, Final residual = 0.00230616, No Iterations 2
smoothSolver:  Solving for Uz, Initial residual = 0.0226002, Final residual = 0.00123632, No Iterations 2
GAMG:  Solving for p, Initial residual = 0.0251487, Final residual = 0.00112036, No Iterations 12
GAMG:  Solving for p, Initial residual = 0.0285033, Final residual = 0.00132882, No Iterations 3
GAMG:  Solving for p, Initial residual = 0.00941263, Final residual = 0.000447866, No Iterations 9
time step continuity errors : sum local = 8.03176e-07, global = 1.17685e-07, cumulative = 1.37934e-06
smoothSolver:  Solving for epsilon, Initial residual = 0.0429941, Final residual = 0.000340774, No Iterations 1
smoothSolver:  Solving for k, Initial residual = 0.00186264, Final residual = 0.000181249, No Iterations 1
ExecutionTime = 72.6957 s  ClockTime = 76 s

Time = 74s

smoothSolver:  Solving for Ux, Initial residual = 0.00119025, Final residual = 6.2554e-05, No Iterations 2
smoothSolver:  Solving for Uy, Initial residual = 0.0335731, Final residual = 0.0022675, No Iterations 2
smoothSolver:  Solving for Uz, Initial residual = 0.021734, Final residual = 0.00118722, No Iterations 2
GAMG:  Solving for p, Initial residual = 0.0240235, Final residual = 0.00118322, No Iterations 11
GAMG:  Solving for p, Initial residual = 0.0263499, Final residual = 0.00127979, No Iterations 3
GAMG:  Solving for p, Initial residual = 0.0089753, Final residual = 0.000444878, No Iterations 8
time step continuity errors : sum local = 7.90262e-07, global = 1.09151e-07, cumulative = 1.48849e-06
smoothSolver:  Solving for epsilon, Initial residual = 0.0432767, Final residual = 0.000342816, No Iterations 1
smoothSolver:  Solving for k, Initial residual = 0.00183128, Final residual = 0.000175662, No Iterations 1
ExecutionTime = 73.4247 s  ClockTime = 77 s

Time = 75s

smoothSolver:  Solving for Ux, Initial residual = 0.00116639, Final residual = 6.06568e-05, No Iterations 2
smoothSolver:  Solving for Uy, Initial residual = 0.0328419, Final residual = 0.00222207, No Iterations 2
smoothSolver:  Solving for Uz, Initial residual = 0.0209185, Final residual = 0.00113715, No Iterations 2
GAMG:  Solving for p, Initial residual = 0.0224748, Final residual = 0.00107811, No Iterations 11
GAMG:  Solving for p, Initial residual = 0.0243093, Final residual = 0.00116379, No Iterations 3
GAMG:  Solving for p, Initial residual = 0.00825414, Final residual = 0.000398821, No Iterations 8
time step continuity errors : sum local = 7.01267e-07, global = 9.18306e-08, cumulative = 1.58032e-06
smoothSolver:  Solving for epsilon, Initial residual = 0.0435971, Final residual = 0.000346037, No Iterations 1
smoothSolver:  Solving for k, Initial residual = 0.00179241, Final residual = 0.000169932, No Iterations 1
ExecutionTime = 74.1482 s  ClockTime = 78 s

Time = 76s

smoothSolver:  Solving for Ux, Initial residual = 0.00114259, Final residual = 5.885e-05, No Iterations 2
smoothSolver:  Solving for Uy, Initial residual = 0.0320816, Final residual = 0.00217595, No Iterations 2
smoothSolver:  Solving for Uz, Initial residual = 0.0201333, Final residual = 0.00108797, No Iterations 2
GAMG:  Solving for p, Initial residual = 0.0211965, Final residual = 0.00103589, No Iterations 10
GAMG:  Solving for p, Initial residual = 0.0222374, Final residual = 0.00108628, No Iterations 3
GAMG:  Solving for p, Initial residual = 0.00727447, Final residual = 0.000319945, No Iterations 11
time step continuity errors : sum local = 5.57901e-07, global = 8.02795e-08, cumulative = 1.6606e-06
smoothSolver:  Solving for epsilon, Initial residual = 0.0438949, Final residual = 0.000347957, No Iterations 1
smoothSolver:  Solving for k, Initial residual = 0.00174706, Final residual = 0.000164313, No Iterations 1
ExecutionTime = 74.9068 s  ClockTime = 78 s

Time = 77s

smoothSolver:  Solving for Ux, Initial residual = 0.00112007, Final residual = 5.70937e-05, No Iterations 2
smoothSolver:  Solving for Uy, Initial residual = 0.0313546, Final residual = 0.00212981, No Iterations 2
smoothSolver:  Solving for Uz, Initial residual = 0.0192018, Final residual = 0.00104239, No Iterations 2
GAMG:  Solving for p, Initial residual = 0.0202304, Final residual = 0.000920352, No Iterations 10
GAMG:  Solving for p, Initial residual = 0.0211789, Final residual = 0.000989719, No Iterations 3
GAMG:  Solving for p, Initial residual = 0.00689475, Final residual = 0.000299016, No Iterations 9
time step continuity errors : sum local = 5.16427e-07, global = 6.9142e-08, cumulative = 1.72975e-06
smoothSolver:  Solving for epsilon, Initial residual = 0.0441972, Final residual = 0.00035052, No Iterations 1
smoothSolver:  Solving for k, Initial residual = 0.00169546, Final residual = 0.000158693, No Iterations 1
bounding k, min: -0.00180581 max: 7.94427 average: 1.3621
ExecutionTime = 75.6368 s  ClockTime = 79 s

Time = 78s

smoothSolver:  Solving for Ux, Initial residual = 0.00109705, Final residual = 5.53857e-05, No Iterations 2
smoothSolver:  Solving for Uy, Initial residual = 0.0306642, Final residual = 0.0020865, No Iterations 2
smoothSolver:  Solving for Uz, Initial residual = 0.0183336, Final residual = 0.00100091, No Iterations 2
GAMG:  Solving for p, Initial residual = 0.0190513, Final residual = 0.000934762, No Iterations 10
GAMG:  Solving for p, Initial residual = 0.020718, Final residual = 0.00091469, No Iterations 3
GAMG:  Solving for p, Initial residual = 0.006714, Final residual = 0.000296083, No Iterations 8
time step continuity errors : sum local = 5.07283e-07, global = 5.93324e-08, cumulative = 1.78908e-06
smoothSolver:  Solving for epsilon, Initial residual = 0.0444816, Final residual = 0.000353209, No Iterations 1
smoothSolver:  Solving for k, Initial residual = 0.0016413, Final residual = 0.000153207, No Iterations 1
ExecutionTime = 76.3482 s  ClockTime = 80 s

Time = 79s

[...]
GAMG:  Solving for p, Initial residual = 5.60539e-06, Final residual = 8.50321e-07, No Iterations 1
GAMG:  Solving for p, Initial residual = 1.91275e-06, Final residual = 5.18353e-07, No Iterations 1
time step continuity errors : sum local = 8.34571e-10, global = -2.98767e-12, cumulative = 1.89641e-06
smoothSolver:  Solving for epsilon, Initial residual = 0.0505072, Final residual = 0.000393338, No Iterations 1
smoothSolver:  Solving for k, Initial residual = 7.08172e-07, Final residual = 7.50615e-08, No Iterations 1
ExecutionTime = 613.609 s  ClockTime = 623 s

Time = 982s

smoothSolver:  Solving for Ux, Initial residual = 9.96194e-08, Final residual = 9.96194e-08, No Iterations 0
smoothSolver:  Solving for Uy, Initial residual = 4.99496e-06, Final residual = 1.88193e-07, No Iterations 2
smoothSolver:  Solving for Uz, Initial residual = 6.92292e-06, Final residual = 2.47616e-07, No Iterations 2
GAMG:  Solving for p, Initial residual = 8.94557e-06, Final residual = 9.28795e-07, No Iterations 4
GAMG:  Solving for p, Initial residual = 5.54174e-06, Final residual = 9.91836e-07, No Iterations 1
GAMG:  Solving for p, Initial residual = 2.01381e-06, Final residual = 6.50908e-07, No Iterations 1
time step continuity errors : sum local = 1.04798e-09, global = -3.1641e-12, cumulative = 1.8964e-06
smoothSolver:  Solving for epsilon, Initial residual = 0.0505072, Final residual = 0.000393338, No Iterations 1
smoothSolver:  Solving for k, Initial residual = 6.6584e-07, Final residual = 7.42033e-08, No Iterations 1
ExecutionTime = 614.141 s  ClockTime = 623 s

Time = 983s

smoothSolver:  Solving for Ux, Initial residual = 1.13118e-07, Final residual = 9.07225e-09, No Iterations 1
smoothSolver:  Solving for Uy, Initial residual = 4.71587e-06, Final residual = 1.64665e-07, No Iterations 2
smoothSolver:  Solving for Uz, Initial residual = 6.47212e-06, Final residual = 1.86277e-07, No Iterations 2
GAMG:  Solving for p, Initial residual = 8.23385e-06, Final residual = 7.94793e-07, No Iterations 5
GAMG:  Solving for p, Initial residual = 6.2735e-06, Final residual = 9.84005e-07, No Iterations 1
GAMG:  Solving for p, Initial residual = 2.14675e-06, Final residual = 6.29209e-07, No Iterations 1
time step continuity errors : sum local = 1.01305e-09, global = -3.58572e-12, cumulative = 1.8964e-06
smoothSolver:  Solving for epsilon, Initial residual = 0.0505072, Final residual = 0.000393341, No Iterations 1
smoothSolver:  Solving for k, Initial residual = 7.04135e-07, Final residual = 7.48907e-08, No Iterations 1
ExecutionTime = 614.697 s  ClockTime = 624 s

Time = 984s

smoothSolver:  Solving for Ux, Initial residual = 1.08995e-07, Final residual = 8.68939e-09, No Iterations 1
smoothSolver:  Solving for Uy, Initial residual = 4.543e-06, Final residual = 1.47204e-07, No Iterations 2
smoothSolver:  Solving for Uz, Initial residual = 6.62933e-06, Final residual = 2.04555e-07, No Iterations 2
GAMG:  Solving for p, Initial residual = 8.22213e-06, Final residual = 8.91595e-07, No Iterations 5
GAMG:  Solving for p, Initial residual = 6.20335e-06, Final residual = 6.56105e-07, No Iterations 2
GAMG:  Solving for p, Initial residual = 2.14854e-06, Final residual = 5.4995e-07, No Iterations 1
time step continuity errors : sum local = 8.85431e-10, global = -3.534e-12, cumulative = 1.8964e-06
smoothSolver:  Solving for epsilon, Initial residual = 0.0505072, Final residual = 0.000393334, No Iterations 1
smoothSolver:  Solving for k, Initial residual = 6.69412e-07, Final residual = 7.44208e-08, No Iterations 1
bounding k, min: -0.0435714 max: 7.94427 average: 1.32806
ExecutionTime = 615.301 s  ClockTime = 624 s

Time = 985s

smoothSolver:  Solving for Ux, Initial residual = 1.07659e-07, Final residual = 8.7343e-09, No Iterations 1
smoothSolver:  Solving for Uy, Initial residual = 4.97616e-06, Final residual = 1.878e-07, No Iterations 2
smoothSolver:  Solving for Uz, Initial residual = 7.1969e-06, Final residual = 2.62457e-07, No Iterations 2
GAMG:  Solving for p, Initial residual = 8.41408e-06, Final residual = 9.81942e-07, No Iterations 4
GAMG:  Solving for p, Initial residual = 5.28176e-06, Final residual = 6.69555e-07, No Iterations 2
GAMG:  Solving for p, Initial residual = 1.9919e-06, Final residual = 5.59447e-07, No Iterations 1
time step continuity errors : sum local = 9.00733e-10, global = -2.83186e-12, cumulative = 1.89639e-06
smoothSolver:  Solving for epsilon, Initial residual = 0.0505078, Final residual = 0.000393339, No Iterations 1
smoothSolver:  Solving for k, Initial residual = 7.07885e-07, Final residual = 7.50235e-08, No Iterations 1
ExecutionTime = 615.857 s  ClockTime = 625 s

Time = 986s

smoothSolver:  Solving for Ux, Initial residual = 1.00911e-07, Final residual = 8.29491e-09, No Iterations 1
smoothSolver:  Solving for Uy, Initial residual = 4.86475e-06, Final residual = 1.68404e-07, No Iterations 2
smoothSolver:  Solving for Uz, Initial residual = 6.72252e-06, Final residual = 1.94584e-07, No Iterations 2
GAMG:  Solving for p, Initial residual = 7.82919e-06, Final residual = 9.27566e-07, No Iterations 4
GAMG:  Solving for p, Initial residual = 5.85953e-06, Final residual = 6.41855e-07, No Iterations 2
GAMG:  Solving for p, Initial residual = 2.15386e-06, Final residual = 5.26345e-07, No Iterations 1
time step continuity errors : sum local = 8.47427e-10, global = -7.84229e-13, cumulative = 1.89639e-06
smoothSolver:  Solving for epsilon, Initial residual = 0.0505078, Final residual = 0.000393336, No Iterations 1
smoothSolver:  Solving for k, Initial residual = 6.67301e-07, Final residual = 7.44034e-08, No Iterations 1
ExecutionTime = 616.422 s  ClockTime = 625 s

Time = 987s

smoothSolver:  Solving for Ux, Initial residual = 1.0023e-07, Final residual = 7.91981e-09, No Iterations 1
smoothSolver:  Solving for Uy, Initial residual = 4.57941e-06, Final residual = 1.40371e-07, No Iterations 2
smoothSolver:  Solving for Uz, Initial residual = 6.48176e-06, Final residual = 1.91607e-07, No Iterations 2
GAMG:  Solving for p, Initial residual = 7.48361e-06, Final residual = 6.76303e-07, No Iterations 4
GAMG:  Solving for p, Initial residual = 5.2359e-06, Final residual = 8.05689e-07, No Iterations 1
GAMG:  Solving for p, Initial residual = 1.80093e-06, Final residual = 4.91477e-07, No Iterations 1
time step continuity errors : sum local = 7.91297e-10, global = 1.8902e-12, cumulative = 1.8964e-06
smoothSolver:  Solving for epsilon, Initial residual = 0.0505078, Final residual = 0.000393336, No Iterations 1
smoothSolver:  Solving for k, Initial residual = 7.04019e-07, Final residual = 7.48635e-08, No Iterations 1
ExecutionTime = 616.992 s  ClockTime = 626 s

Time = 988s

smoothSolver:  Solving for Ux, Initial residual = 9.62994e-08, Final residual = 9.62994e-08, No Iterations 0
smoothSolver:  Solving for Uy, Initial residual = 4.59231e-06, Final residual = 1.50995e-07, No Iterations 2
smoothSolver:  Solving for Uz, Initial residual = 6.43631e-06, Final residual = 2.06703e-07, No Iterations 2
GAMG:  Solving for p, Initial residual = 8.18341e-06, Final residual = 9.39769e-07, No Iterations 4
GAMG:  Solving for p, Initial residual = 4.6953e-06, Final residual = 9.36339e-07, No Iterations 1
GAMG:  Solving for p, Initial residual = 1.77084e-06, Final residual = 6.27984e-07, No Iterations 1
time step continuity errors : sum local = 1.01107e-09, global = 3.0384e-12, cumulative = 1.8964e-06
smoothSolver:  Solving for epsilon, Initial residual = 0.0505072, Final residual = 0.000393333, No Iterations 1
smoothSolver:  Solving for k, Initial residual = 6.61433e-07, Final residual = 7.38334e-08, No Iterations 1
bounding k, min: -0.00840299 max: 7.94427 average: 1.32806
ExecutionTime = 617.535 s  ClockTime = 626 s

Time = 989s

smoothSolver:  Solving for Ux, Initial residual = 1.13314e-07, Final residual = 8.58872e-09, No Iterations 1
smoothSolver:  Solving for Uy, Initial residual = 4.36111e-06, Final residual = 1.38385e-07, No Iterations 2
smoothSolver:  Solving for Uz, Initial residual = 6.24855e-06, Final residual = 1.57602e-07, No Iterations 2
GAMG:  Solving for p, Initial residual = 7.39286e-06, Final residual = 7.60692e-07, No Iterations 4
GAMG:  Solving for p, Initial residual = 4.93088e-06, Final residual = 8.60354e-07, No Iterations 1
GAMG:  Solving for p, Initial residual = 1.81174e-06, Final residual = 5.503e-07, No Iterations 1
time step continuity errors : sum local = 8.86006e-10, global = 4.48485e-12, cumulative = 1.8964e-06
smoothSolver:  Solving for epsilon, Initial residual = 0.0505072, Final residual = 0.000393335, No Iterations 1
smoothSolver:  Solving for k, Initial residual = 7.0048e-07, Final residual = 7.4518e-08, No Iterations 1
ExecutionTime = 618.072 s  ClockTime = 627 s

Time = 990s

smoothSolver:  Solving for Ux, Initial residual = 1.07338e-07, Final residual = 8.29e-09, No Iterations 1
smoothSolver:  Solving for Uy, Initial residual = 4.15092e-06, Final residual = 1.27999e-07, No Iterations 2
smoothSolver:  Solving for Uz, Initial residual = 6.21275e-06, Final residual = 1.61093e-07, No Iterations 2
GAMG:  Solving for p, Initial residual = 7.25119e-06, Final residual = 9.91742e-07, No Iterations 3
GAMG:  Solving for p, Initial residual = 4.54557e-06, Final residual = 9.02504e-07, No Iterations 1
GAMG:  Solving for p, Initial residual = 1.73774e-06, Final residual = 6.12638e-07, No Iterations 1
time step continuity errors : sum local = 9.86362e-10, global = 5.95914e-12, cumulative = 1.89641e-06
smoothSolver:  Solving for epsilon, Initial residual = 0.0505072, Final residual = 0.000393334, No Iterations 1
smoothSolver:  Solving for k, Initial residual = 6.65039e-07, Final residual = 7.40913e-08, No Iterations 1
ExecutionTime = 618.59 s  ClockTime = 628 s

Time = 991s

smoothSolver:  Solving for Ux, Initial residual = 1.0714e-07, Final residual = 8.23246e-09, No Iterations 1
smoothSolver:  Solving for Uy, Initial residual = 4.21465e-06, Final residual = 1.27238e-07, No Iterations 2
smoothSolver:  Solving for Uz, Initial residual = 6.22625e-06, Final residual = 1.65198e-07, No Iterations 2
GAMG:  Solving for p, Initial residual = 7.56651e-06, Final residual = 9.79747e-07, No Iterations 4
GAMG:  Solving for p, Initial residual = 4.91825e-06, Final residual = 9.94374e-07, No Iterations 1
GAMG:  Solving for p, Initial residual = 1.87588e-06, Final residual = 6.85233e-07, No Iterations 1
time step continuity errors : sum local = 1.10325e-09, global = 5.13046e-12, cumulative = 1.89641e-06
smoothSolver:  Solving for epsilon, Initial residual = 0.0505072, Final residual = 0.00039334, No Iterations 1
smoothSolver:  Solving for k, Initial residual = 7.03883e-07, Final residual = 7.48468e-08, No Iterations 1
bounding k, min: -0.0508924 max: 7.94427 average: 1.32806
ExecutionTime = 619.131 s  ClockTime = 628 s

Time = 992s

smoothSolver:  Solving for Ux, Initial residual = 1.08151e-07, Final residual = 8.22212e-09, No Iterations 1
smoothSolver:  Solving for Uy, Initial residual = 4.5665e-06, Final residual = 1.48023e-07, No Iterations 2
smoothSolver:  Solving for Uz, Initial residual = 6.67097e-06, Final residual = 1.83789e-07, No Iterations 2
GAMG:  Solving for p, Initial residual = 8.04697e-06, Final residual = 7.80731e-07, No Iterations 5
GAMG:  Solving for p, Initial residual = 5.25732e-06, Final residual = 9.31906e-07, No Iterations 1
GAMG:  Solving for p, Initial residual = 1.93025e-06, Final residual = 6.21009e-07, No Iterations 1
time step continuity errors : sum local = 9.99839e-10, global = 4.34575e-12, cumulative = 1.89642e-06
smoothSolver:  Solving for epsilon, Initial residual = 0.0505072, Final residual = 0.000393337, No Iterations 1
smoothSolver:  Solving for k, Initial residual = 6.68387e-07, Final residual = 7.42057e-08, No Iterations 1
ExecutionTime = 619.685 s  ClockTime = 629 s

Time = 993s

smoothSolver:  Solving for Ux, Initial residual = 1.00916e-07, Final residual = 7.78004e-09, No Iterations 1
smoothSolver:  Solving for Uy, Initial residual = 4.5237e-06, Final residual = 1.29471e-07, No Iterations 2
smoothSolver:  Solving for Uz, Initial residual = 6.27263e-06, Final residual = 1.5409e-07, No Iterations 2
GAMG:  Solving for p, Initial residual = 7.33299e-06, Final residual = 8.91006e-07, No Iterations 4
GAMG:  Solving for p, Initial residual = 5.12977e-06, Final residual = 9.37871e-07, No Iterations 1
GAMG:  Solving for p, Initial residual = 1.85974e-06, Final residual = 6.27216e-07, No Iterations 1
time step continuity errors : sum local = 1.00984e-09, global = 3.16356e-12, cumulative = 1.89642e-06
smoothSolver:  Solving for epsilon, Initial residual = 0.0505072, Final residual = 0.000393339, No Iterations 1
smoothSolver:  Solving for k, Initial residual = 7.03171e-07, Final residual = 7.47279e-08, No Iterations 1
ExecutionTime = 620.22 s  ClockTime = 629 s

Time = 994s

smoothSolver:  Solving for Ux, Initial residual = 9.66071e-08, Final residual = 9.66071e-08, No Iterations 0
smoothSolver:  Solving for Uy, Initial residual = 4.44209e-06, Final residual = 1.28197e-07, No Iterations 2
smoothSolver:  Solving for Uz, Initial residual = 6.46498e-06, Final residual = 1.81229e-07, No Iterations 2
GAMG:  Solving for p, Initial residual = 7.80378e-06, Final residual = 7.12472e-07, No Iterations 4
GAMG:  Solving for p, Initial residual = 4.83341e-06, Final residual = 7.98425e-07, No Iterations 1
GAMG:  Solving for p, Initial residual = 1.70915e-06, Final residual = 4.92727e-07, No Iterations 1
time step continuity errors : sum local = 7.93303e-10, global = 3.02685e-12, cumulative = 1.89642e-06
smoothSolver:  Solving for epsilon, Initial residual = 0.0505073, Final residual = 0.000393338, No Iterations 1
smoothSolver:  Solving for k, Initial residual = 6.61722e-07, Final residual = 7.37696e-08, No Iterations 1
ExecutionTime = 620.746 s  ClockTime = 630 s

Time = 995s

smoothSolver:  Solving for Ux, Initial residual = 1.15925e-07, Final residual = 8.51295e-09, No Iterations 1
smoothSolver:  Solving for Uy, Initial residual = 4.2148e-06, Final residual = 1.3775e-07, No Iterations 2
smoothSolver:  Solving for Uz, Initial residual = 6.25524e-06, Final residual = 1.77072e-07, No Iterations 2
GAMG:  Solving for p, Initial residual = 7.54732e-06, Final residual = 8.16703e-07, No Iterations 4
GAMG:  Solving for p, Initial residual = 4.55044e-06, Final residual = 8.65051e-07, No Iterations 1
GAMG:  Solving for p, Initial residual = 1.71267e-06, Final residual = 5.79814e-07, No Iterations 1
time step continuity errors : sum local = 9.33525e-10, global = 2.21468e-12, cumulative = 1.89643e-06
smoothSolver:  Solving for epsilon, Initial residual = 0.0505072, Final residual = 0.000393334, No Iterations 1
smoothSolver:  Solving for k, Initial residual = 7.01288e-07, Final residual = 7.45678e-08, No Iterations 1
ExecutionTime = 621.288 s  ClockTime = 630 s

Time = 996s

smoothSolver:  Solving for Ux, Initial residual = 1.05251e-07, Final residual = 8.21914e-09, No Iterations 1
smoothSolver:  Solving for Uy, Initial residual = 4.04162e-06, Final residual = 1.24039e-07, No Iterations 2
smoothSolver:  Solving for Uz, Initial residual = 5.8355e-06, Final residual = 1.42055e-07, No Iterations 2
GAMG:  Solving for p, Initial residual = 7.82431e-06, Final residual = 8.51218e-07, No Iterations 5
GAMG:  Solving for p, Initial residual = 5.79672e-06, Final residual = 9.7418e-07, No Iterations 1
GAMG:  Solving for p, Initial residual = 2.02351e-06, Final residual = 6.55614e-07, No Iterations 1
time step continuity errors : sum local = 1.05555e-09, global = 1.46188e-12, cumulative = 1.89643e-06
smoothSolver:  Solving for epsilon, Initial residual = 0.0505078, Final residual = 0.000393337, No Iterations 1
smoothSolver:  Solving for k, Initial residual = 6.65707e-07, Final residual = 7.41666e-08, No Iterations 1
bounding k, min: -0.0609911 max: 7.94427 average: 1.32806
ExecutionTime = 621.85 s  ClockTime = 631 s

Time = 997s

smoothSolver:  Solving for Ux, Initial residual = 1.06316e-07, Final residual = 8.06963e-09, No Iterations 1
smoothSolver:  Solving for Uy, Initial residual = 4.50483e-06, Final residual = 1.43398e-07, No Iterations 2
smoothSolver:  Solving for Uz, Initial residual = 7.00961e-06, Final residual = 1.98107e-07, No Iterations 2
GAMG:  Solving for p, Initial residual = 8.18793e-06, Final residual = 7.74446e-07, No Iterations 5
GAMG:  Solving for p, Initial residual = 4.98206e-06, Final residual = 8.97032e-07, No Iterations 1
GAMG:  Solving for p, Initial residual = 1.84011e-06, Final residual = 6.05821e-07, No Iterations 1
time step continuity errors : sum local = 9.75397e-10, global = 6.26277e-13, cumulative = 1.89643e-06
smoothSolver:  Solving for epsilon, Initial residual = 0.0505078, Final residual = 0.000393339, No Iterations 1
smoothSolver:  Solving for k, Initial residual = 7.06843e-07, Final residual = 7.46563e-08, No Iterations 1
ExecutionTime = 622.403 s  ClockTime = 631 s

Time = 998s

smoothSolver:  Solving for Ux, Initial residual = 1.00178e-07, Final residual = 7.74136e-09, No Iterations 1
smoothSolver:  Solving for Uy, Initial residual = 4.29578e-06, Final residual = 1.29796e-07, No Iterations 2
smoothSolver:  Solving for Uz, Initial residual = 6.27917e-06, Final residual = 1.64603e-07, No Iterations 2
GAMG:  Solving for p, Initial residual = 7.37855e-06, Final residual = 9.05598e-07, No Iterations 4
GAMG:  Solving for p, Initial residual = 5.32519e-06, Final residual = 9.53426e-07, No Iterations 1
GAMG:  Solving for p, Initial residual = 1.92011e-06, Final residual = 6.49979e-07, No Iterations 1
time step continuity errors : sum local = 1.04648e-09, global = 3.33595e-13, cumulative = 1.89643e-06
smoothSolver:  Solving for epsilon, Initial residual = 0.0505078, Final residual = 0.000393337, No Iterations 1
smoothSolver:  Solving for k, Initial residual = 6.65655e-07, Final residual = 7.40983e-08, No Iterations 1
ExecutionTime = 622.937 s  ClockTime = 632 s

Time = 999s

smoothSolver:  Solving for Ux, Initial residual = 9.76723e-08, Final residual = 9.76723e-08, No Iterations 0
smoothSolver:  Solving for Uy, Initial residual = 4.36526e-06, Final residual = 1.22335e-07, No Iterations 2
smoothSolver:  Solving for Uz, Initial residual = 6.32403e-06, Final residual = 1.68479e-07, No Iterations 2
GAMG:  Solving for p, Initial residual = 7.86713e-06, Final residual = 7.69624e-07, No Iterations 4
GAMG:  Solving for p, Initial residual = 5.15835e-06, Final residual = 8.42234e-07, No Iterations 1
GAMG:  Solving for p, Initial residual = 1.79838e-06, Final residual = 5.27656e-07, No Iterations 1
time step continuity errors : sum local = 8.49548e-10, global = -2.59668e-13, cumulative = 1.89643e-06
smoothSolver:  Solving for epsilon, Initial residual = 0.0505072, Final residual = 0.000393334, No Iterations 1
smoothSolver:  Solving for k, Initial residual = 6.99576e-07, Final residual = 7.43738e-08, No Iterations 1
ExecutionTime = 623.462 s  ClockTime = 632 s

Time = 1000s

smoothSolver:  Solving for Ux, Initial residual = 1.18147e-07, Final residual = 8.70911e-09, No Iterations 1
smoothSolver:  Solving for Uy, Initial residual = 4.33245e-06, Final residual = 1.39125e-07, No Iterations 2
smoothSolver:  Solving for Uz, Initial residual = 6.59936e-06, Final residual = 1.93429e-07, No Iterations 2
GAMG:  Solving for p, Initial residual = 7.69331e-06, Final residual = 8.76049e-07, No Iterations 4
GAMG:  Solving for p, Initial residual = 4.69448e-06, Final residual = 9.13947e-07, No Iterations 1
GAMG:  Solving for p, Initial residual = 1.79256e-06, Final residual = 6.09292e-07, No Iterations 1
time step continuity errors : sum local = 9.80974e-10, global = -5.02364e-13, cumulative = 1.89643e-06
smoothSolver:  Solving for epsilon, Initial residual = 0.0505072, Final residual = 0.000393333, No Iterations 1
smoothSolver:  Solving for k, Initial residual = 6.64944e-07, Final residual = 7.40177e-08, No Iterations 1
ExecutionTime = 624.717 s  ClockTime = 634 s

End

