/*---------------------------------------------------------------------------*\
  =========                 |
  \\      /  F ield         | OpenFOAM: The Open Source CFD Toolbox
   \\    /   O peration     | Website:  https://openfoam.org
    \\  /    A nd           | Version:  13
     \\/     M anipulation  |
\*---------------------------------------------------------------------------*/
Build  : 13-441953dfbb42
Exec   : foamRun -solver incompressibleFluid
Date   : May 12 2026
Time   : 16:25:10
Host   : "openfoam"
PID    : 2535
I/O    : uncollated
Case   : /home/ubuntu/OpenFOAM/ubuntu-v13/run/sRiverTest/rans/winter
nProcs : 1
sigFpe : Floating point exception trapping - not supported on this platform
fileModificationChecking : Monitoring run-time modified files using timeStampMaster (fileModificationSkew 10)
allowSystemOperations : Allowing user-supplied system call operations

// * * * * * * * * * * * * * * * * * * * * * * * * * * * * * * * * * * * * * //
Create time

Create mesh for time = 0

Selecting solver incompressibleFluid
Selecting viscosity model constant
Selecting turbulence model type RAS
    Selecting RAS turbulence model kEpsilon
No MRF models present


SIMPLE: Convergence criteria found
        p: tolerance 1e-05
        U: tolerance 1e-06
        k: tolerance 1e-06
        epsilon: tolerance 1e-06


SIMPLE: Operating solver in steady-state mode with 1 outer corrector
SIMPLE: Operating solver in SIMPLE mode



Starting time loop

Time = 1s

smoothSolver:  Solving for Ux, Initial residual = 1, Final residual = 0.0880917, No Iterations 1
smoothSolver:  Solving for Uy, Initial residual = 1, Final residual = 0.0395884, No Iterations 2
smoothSolver:  Solving for Uz, Initial residual = 1, Final residual = 0.0920133, No Iterations 1
GAMG:  Solving for p, Initial residual = 1, Final residual = 0.0483228, No Iterations 85
GAMG:  Solving for p, Initial residual = 0.197619, Final residual = 0.00619372, No Iterations 3
GAMG:  Solving for p, Initial residual = 0.0505827, Final residual = 0.00184744, No Iterations 3
time step continuity errors : sum local = 0.000337783, global = 2.51782e-05, cumulative = 2.51782e-05
smoothSolver:  Solving for epsilon, Initial residual = 0.451939, Final residual = 0.00188893, No Iterations 1
smoothSolver:  Solving for k, Initial residual = 1, Final residual = 0.0121906, No Iterations 1
ExecutionTime = 2.6617 s  ClockTime = 3 s

Time = 2s

smoothSolver:  Solving for Ux, Initial residual = 0.517435, Final residual = 0.0384226, No Iterations 1
smoothSolver:  Solving for Uy, Initial residual = 0.558946, Final residual = 0.017042, No Iterations 2
smoothSolver:  Solving for Uz, Initial residual = 0.264687, Final residual = 0.0105277, No Iterations 2
GAMG:  Solving for p, Initial residual = 0.0491081, Final residual = 0.00238005, No Iterations 64
GAMG:  Solving for p, Initial residual = 0.134629, Final residual = 0.00545644, No Iterations 3
GAMG:  Solving for p, Initial residual = 0.0390487, Final residual = 0.00157086, No Iterations 4
time step continuity errors : sum local = 0.000221812, global = 2.35178e-05, cumulative = 4.86959e-05
smoothSolver:  Solving for epsilon, Initial residual = 0.206668, Final residual = 0.000141028, No Iterations 1
smoothSolver:  Solving for k, Initial residual = 0.219269, Final residual = 0.00320163, No Iterations 1
ExecutionTime = 4.23132 s  ClockTime = 5 s

Time = 3s

smoothSolver:  Solving for Ux, Initial residual = 0.31021, Final residual = 0.0205014, No Iterations 1
smoothSolver:  Solving for Uy, Initial residual = 0.305602, Final residual = 0.00816771, No Iterations 2
smoothSolver:  Solving for Uz, Initial residual = 0.178987, Final residual = 0.00573646, No Iterations 2
GAMG:  Solving for p, Initial residual = 0.0486081, Final residual = 0.00234906, No Iterations 62
GAMG:  Solving for p, Initial residual = 0.337802, Final residual = 0.0129801, No Iterations 3
GAMG:  Solving for p, Initial residual = 0.117106, Final residual = 0.00433707, No Iterations 4
time step continuity errors : sum local = 0.000311224, global = -2.74613e-05, cumulative = 2.12346e-05
smoothSolver:  Solving for epsilon, Initial residual = 0.0475422, Final residual = 5.61831e-05, No Iterations 1
smoothSolver:  Solving for k, Initial residual = 0.078625, Final residual = 0.00181797, No Iterations 1
ExecutionTime = 5.76158 s  ClockTime = 6 s

Time = 4s

smoothSolver:  Solving for Ux, Initial residual = 0.107243, Final residual = 0.00755806, No Iterations 1
smoothSolver:  Solving for Uy, Initial residual = 0.154644, Final residual = 0.0154615, No Iterations 1
smoothSolver:  Solving for Uz, Initial residual = 0.152309, Final residual = 0.00466721, No Iterations 2
GAMG:  Solving for p, Initial residual = 0.0740359, Final residual = 0.00362283, No Iterations 82
GAMG:  Solving for p, Initial residual = 0.255626, Final residual = 0.00882379, No Iterations 3
GAMG:  Solving for p, Initial residual = 0.0724675, Final residual = 0.00231272, No Iterations 3
time step continuity errors : sum local = 0.000401379, global = -3.10571e-05, cumulative = -9.82247e-06
smoothSolver:  Solving for epsilon, Initial residual = 0.0201303, Final residual = 4.69551e-05, No Iterations 1
smoothSolver:  Solving for k, Initial residual = 0.0469531, Final residual = 0.00125521, No Iterations 1
ExecutionTime = 7.63094 s  ClockTime = 8 s

Time = 5s

smoothSolver:  Solving for Ux, Initial residual = 0.124701, Final residual = 0.00763718, No Iterations 1
smoothSolver:  Solving for Uy, Initial residual = 0.209032, Final residual = 0.0203529, No Iterations 1
smoothSolver:  Solving for Uz, Initial residual = 0.249429, Final residual = 0.00804382, No Iterations 2
GAMG:  Solving for p, Initial residual = 0.0889258, Final residual = 0.00416412, No Iterations 45
GAMG:  Solving for p, Initial residual = 0.153679, Final residual = 0.00581105, No Iterations 3
GAMG:  Solving for p, Initial residual = 0.041952, Final residual = 0.00175946, No Iterations 5
time step continuity errors : sum local = 0.000148689, global = 2.22782e-05, cumulative = 1.24558e-05
smoothSolver:  Solving for epsilon, Initial residual = 0.0121517, Final residual = 5.48172e-05, No Iterations 1
smoothSolver:  Solving for k, Initial residual = 0.0423982, Final residual = 0.00124374, No Iterations 1
ExecutionTime = 8.98584 s  ClockTime = 9 s

Time = 6s

smoothSolver:  Solving for Ux, Initial residual = 0.208121, Final residual = 0.014049, No Iterations 1
smoothSolver:  Solving for Uy, Initial residual = 0.250464, Final residual = 0.00542491, No Iterations 2
smoothSolver:  Solving for Uz, Initial residual = 0.182647, Final residual = 0.00662229, No Iterations 2
GAMG:  Solving for p, Initial residual = 0.0668116, Final residual = 0.00333767, No Iterations 46
GAMG:  Solving for p, Initial residual = 0.270407, Final residual = 0.00953325, No Iterations 3
GAMG:  Solving for p, Initial residual = 0.0887594, Final residual = 0.00400421, No Iterations 4
time step continuity errors : sum local = 0.000214304, global = 2.97659e-05, cumulative = 4.22216e-05
smoothSolver:  Solving for epsilon, Initial residual = 0.00912591, Final residual = 7.85604e-05, No Iterations 1
smoothSolver:  Solving for k, Initial residual = 0.0214826, Final residual = 0.0013679, No Iterations 1
ExecutionTime = 10.2465 s  ClockTime = 11 s

Time = 7s

smoothSolver:  Solving for Ux, Initial residual = 0.0885515, Final residual = 0.00765601, No Iterations 1
smoothSolver:  Solving for Uy, Initial residual = 0.168522, Final residual = 0.00428243, No Iterations 2
smoothSolver:  Solving for Uz, Initial residual = 0.180612, Final residual = 0.00690736, No Iterations 2
GAMG:  Solving for p, Initial residual = 0.110124, Final residual = 0.00540944, No Iterations 64
GAMG:  Solving for p, Initial residual = 0.232046, Final residual = 0.00832616, No Iterations 3
GAMG:  Solving for p, Initial residual = 0.0643819, Final residual = 0.00234756, No Iterations 3
time step continuity errors : sum local = 0.000249232, global = 2.31093e-05, cumulative = 6.5331e-05
smoothSolver:  Solving for epsilon, Initial residual = 0.007817, Final residual = 0.000110215, No Iterations 1
smoothSolver:  Solving for k, Initial residual = 0.0177706, Final residual = 0.00143906, No Iterations 1
ExecutionTime = 11.798 s  ClockTime = 12 s

Time = 8s

smoothSolver:  Solving for Ux, Initial residual = 0.0869474, Final residual = 0.00540716, No Iterations 1
smoothSolver:  Solving for Uy, Initial residual = 0.154712, Final residual = 0.00408741, No Iterations 2
smoothSolver:  Solving for Uz, Initial residual = 0.212259, Final residual = 0.0077625, No Iterations 2
GAMG:  Solving for p, Initial residual = 0.109145, Final residual = 0.00523108, No Iterations 26
GAMG:  Solving for p, Initial residual = 0.178836, Final residual = 0.00664628, No Iterations 3
GAMG:  Solving for p, Initial residual = 0.0470965, Final residual = 0.0022549, No Iterations 5
time step continuity errors : sum local = 0.000113578, global = -1.56262e-05, cumulative = 4.97047e-05
smoothSolver:  Solving for epsilon, Initial residual = 0.00720014, Final residual = 0.0001158, No Iterations 1
smoothSolver:  Solving for k, Initial residual = 0.0131167, Final residual = 0.000246312, No Iterations 2
ExecutionTime = 12.7379 s  ClockTime = 13 s

Time = 9s

smoothSolver:  Solving for Ux, Initial residual = 0.100404, Final residual = 0.00728844, No Iterations 1
smoothSolver:  Solving for Uy, Initial residual = 0.136195, Final residual = 0.00380987, No Iterations 2
smoothSolver:  Solving for Uz, Initial residual = 0.162627, Final residual = 0.00559951, No Iterations 2
GAMG:  Solving for p, Initial residual = 0.0822295, Final residual = 0.0038386, No Iterations 38
GAMG:  Solving for p, Initial residual = 0.19539, Final residual = 0.00717346, No Iterations 3
GAMG:  Solving for p, Initial residual = 0.064389, Final residual = 0.00274645, No Iterations 7
time step continuity errors : sum local = 8.66652e-05, global = 1.39031e-05, cumulative = 6.36078e-05
smoothSolver:  Solving for epsilon, Initial residual = 0.00760265, Final residual = 0.000109856, No Iterations 1
smoothSolver:  Solving for k, Initial residual = 0.0181785, Final residual = 0.00143233, No Iterations 1
bounding k, min: -0.0203475 max: 9.50045 average: 1.69548
ExecutionTime = 13.9165 s  ClockTime = 14 s

Time = 10s

smoothSolver:  Solving for Ux, Initial residual = 0.0397577, Final residual = 0.00375376, No Iterations 1
smoothSolver:  Solving for Uy, Initial residual = 0.132085, Final residual = 0.00335578, No Iterations 2
smoothSolver:  Solving for Uz, Initial residual = 0.164782, Final residual = 0.0059974, No Iterations 2
GAMG:  Solving for p, Initial residual = 0.125418, Final residual = 0.00625416, No Iterations 56
GAMG:  Solving for p, Initial residual = 0.217195, Final residual = 0.0079556, No Iterations 3
GAMG:  Solving for p, Initial residual = 0.0617331, Final residual = 0.00238722, No Iterations 4
time step continuity errors : sum local = 0.000135832, global = -1.25603e-05, cumulative = 5.10474e-05
smoothSolver:  Solving for epsilon, Initial residual = 0.0087902, Final residual = 0.000117288, No Iterations 1
smoothSolver:  Solving for k, Initial residual = 0.0187808, Final residual = 0.00126891, No Iterations 1
bounding k, min: -0.0031764 max: 10.2058 average: 1.711
ExecutionTime = 15.3587 s  ClockTime = 16 s

Time = 11s

smoothSolver:  Solving for Ux, Initial residual = 0.0441629, Final residual = 0.00388384, No Iterations 1
smoothSolver:  Solving for Uy, Initial residual = 0.136837, Final residual = 0.00303416, No Iterations 2
smoothSolver:  Solving for Uz, Initial residual = 0.202129, Final residual = 0.00688135, No Iterations 2
GAMG:  Solving for p, Initial residual = 0.152399, Final residual = 0.00746864, No Iterations 31
GAMG:  Solving for p, Initial residual = 0.210493, Final residual = 0.00821864, No Iterations 3
GAMG:  Solving for p, Initial residual = 0.0563152, Final residual = 0.00277971, No Iterations 7
time step continuity errors : sum local = 7.74201e-05, global = 1.20308e-05, cumulative = 6.30782e-05
smoothSolver:  Solving for epsilon, Initial residual = 0.0101195, Final residual = 0.000113162, No Iterations 1
smoothSolver:  Solving for k, Initial residual = 0.017644, Final residual = 0.00115174, No Iterations 1
ExecutionTime = 16.4154 s  ClockTime = 17 s

Time = 12s

smoothSolver:  Solving for Ux, Initial residual = 0.0554111, Final residual = 0.00484464, No Iterations 1
smoothSolver:  Solving for Uy, Initial residual = 0.121254, Final residual = 0.00311385, No Iterations 2
smoothSolver:  Solving for Uz, Initial residual = 0.157057, Final residual = 0.00551118, No Iterations 2
GAMG:  Solving for p, Initial residual = 0.12035, Final residual = 0.00596249, No Iterations 26
GAMG:  Solving for p, Initial residual = 0.169224, Final residual = 0.00781254, No Iterations 3
GAMG:  Solving for p, Initial residual = 0.0548147, Final residual = 0.00271811, No Iterations 11
time step continuity errors : sum local = 4.99991e-05, global = -8.45231e-06, cumulative = 5.46259e-05
smoothSolver:  Solving for epsilon, Initial residual = 0.0131074, Final residual = 0.000136593, No Iterations 1
smoothSolver:  Solving for k, Initial residual = 0.0177806, Final residual = 0.00113921, No Iterations 1
bounding k, min: -0.00117163 max: 11.261 average: 1.62845
ExecutionTime = 17.4576 s  ClockTime = 18 s

Time = 13s

smoothSolver:  Solving for Ux, Initial residual = 0.0263646, Final residual = 0.000712833, No Iterations 2
smoothSolver:  Solving for Uy, Initial residual = 0.111684, Final residual = 0.00338216, No Iterations 2
smoothSolver:  Solving for Uz, Initial residual = 0.131592, Final residual = 0.00509526, No Iterations 2
GAMG:  Solving for p, Initial residual = 0.174371, Final residual = 0.00827768, No Iterations 46
GAMG:  Solving for p, Initial residual = 0.186872, Final residual = 0.00667441, No Iterations 3
GAMG:  Solving for p, Initial residual = 0.0527298, Final residual = 0.00219865, No Iterations 5
time step continuity errors : sum local = 7.40462e-05, global = -1.03465e-05, cumulative = 4.42794e-05
smoothSolver:  Solving for epsilon, Initial residual = 0.0186516, Final residual = 0.000183311, No Iterations 1
smoothSolver:  Solving for k, Initial residual = 0.0145951, Final residual = 0.00110568, No Iterations 1
ExecutionTime = 18.748 s  ClockTime = 19 s

Time = 14s

smoothSolver:  Solving for Ux, Initial residual = 0.0283142, Final residual = 0.00213595, No Iterations 1
smoothSolver:  Solving for Uy, Initial residual = 0.0977527, Final residual = 0.00334902, No Iterations 2
smoothSolver:  Solving for Uz, Initial residual = 0.157064, Final residual = 0.00570636, No Iterations 2
GAMG:  Solving for p, Initial residual = 0.176239, Final residual = 0.00815363, No Iterations 39
GAMG:  Solving for p, Initial residual = 0.212172, Final residual = 0.00808296, No Iterations 3
GAMG:  Solving for p, Initial residual = 0.0549406, Final residual = 0.00272348, No Iterations 7
time step continuity errors : sum local = 5.67376e-05, global = -8.86362e-06, cumulative = 3.54157e-05
smoothSolver:  Solving for epsilon, Initial residual = 0.0246413, Final residual = 0.000213228, No Iterations 1
smoothSolver:  Solving for k, Initial residual = 0.0157164, Final residual = 0.00104686, No Iterations 1
bounding k, min: -0.000212837 max: 11.0503 average: 1.53136
ExecutionTime = 19.9421 s  ClockTime = 20 s

Time = 15s

smoothSolver:  Solving for Ux, Initial residual = 0.0315175, Final residual = 0.00259442, No Iterations 1
smoothSolver:  Solving for Uy, Initial residual = 0.0959343, Final residual = 0.00324793, No Iterations 2
smoothSolver:  Solving for Uz, Initial residual = 0.150586, Final residual = 0.00520872, No Iterations 2
GAMG:  Solving for p, Initial residual = 0.131755, Final residual = 0.00638249, No Iterations 22
GAMG:  Solving for p, Initial residual = 0.178202, Final residual = 0.00690696, No Iterations 4
GAMG:  Solving for p, Initial residual = 0.0533518, Final residual = 0.00247044, No Iterations 12
time step continuity errors : sum local = 2.74202e-05, global = 4.2515e-06, cumulative = 3.96672e-05
smoothSolver:  Solving for epsilon, Initial residual = 0.0266467, Final residual = 0.000204625, No Iterations 1
smoothSolver:  Solving for k, Initial residual = 0.0129411, Final residual = 0.000943675, No Iterations 1
ExecutionTime = 20.9412 s  ClockTime = 21 s

Time = 16s

smoothSolver:  Solving for Ux, Initial residual = 0.0195722, Final residual = 0.00051405, No Iterations 2
smoothSolver:  Solving for Uy, Initial residual = 0.0979183, Final residual = 0.00323078, No Iterations 2
smoothSolver:  Solving for Uz, Initial residual = 0.141452, Final residual = 0.00491452, No Iterations 2
GAMG:  Solving for p, Initial residual = 0.158187, Final residual = 0.00780069, No Iterations 34
GAMG:  Solving for p, Initial residual = 0.162611, Final residual = 0.00649941, No Iterations 3
GAMG:  Solving for p, Initial residual = 0.0488157, Final residual = 0.00225849, No Iterations 9
time step continuity errors : sum local = 4.17255e-05, global = 7.04794e-06, cumulative = 4.67152e-05
smoothSolver:  Solving for epsilon, Initial residual = 0.0255248, Final residual = 0.000194458, No Iterations 1
smoothSolver:  Solving for k, Initial residual = 0.0113317, Final residual = 0.000887417, No Iterations 1
ExecutionTime = 22.0972 s  ClockTime = 23 s

Time = 17s

smoothSolver:  Solving for Ux, Initial residual = 0.016614, Final residual = 0.000494635, No Iterations 2
smoothSolver:  Solving for Uy, Initial residual = 0.0818444, Final residual = 0.00300108, No Iterations 2
smoothSolver:  Solving for Uz, Initial residual = 0.142136, Final residual = 0.00506335, No Iterations 2
GAMG:  Solving for p, Initial residual = 0.223888, Final residual = 0.0109935, No Iterations 35
GAMG:  Solving for p, Initial residual = 0.230166, Final residual = 0.00947398, No Iterations 3
GAMG:  Solving for p, Initial residual = 0.0644044, Final residual = 0.00321887, No Iterations 9
time step continuity errors : sum local = 4.10011e-05, global = 7.12366e-06, cumulative = 5.38388e-05
smoothSolver:  Solving for epsilon, Initial residual = 0.0252966, Final residual = 0.000193502, No Iterations 1
smoothSolver:  Solving for k, Initial residual = 0.0126109, Final residual = 0.000874723, No Iterations 1
ExecutionTime = 23.3321 s  ClockTime = 24 s

Time = 18s

smoothSolver:  Solving for Ux, Initial residual = 0.0180961, Final residual = 0.000510754, No Iterations 2
smoothSolver:  Solving for Uy, Initial residual = 0.0732884, Final residual = 0.00280435, No Iterations 2
smoothSolver:  Solving for Uz, Initial residual = 0.126895, Final residual = 0.00443471, No Iterations 2
GAMG:  Solving for p, Initial residual = 0.180419, Final residual = 0.00887051, No Iterations 20
GAMG:  Solving for p, Initial residual = 0.20103, Final residual = 0.00762407, No Iterations 4
GAMG:  Solving for p, Initial residual = 0.0603834, Final residual = 0.00263477, No Iterations 12
time step continuity errors : sum local = 2.10034e-05, global = -2.92349e-06, cumulative = 5.09154e-05
smoothSolver:  Solving for epsilon, Initial residual = 0.0262485, Final residual = 0.000199782, No Iterations 1
smoothSolver:  Solving for k, Initial residual = 0.0130483, Final residual = 0.000858176, No Iterations 1
ExecutionTime = 24.3037 s  ClockTime = 25 s

Time = 19s

smoothSolver:  Solving for Ux, Initial residual = 0.0144858, Final residual = 0.000444566, No Iterations 2
smoothSolver:  Solving for Uy, Initial residual = 0.0757908, Final residual = 0.00287784, No Iterations 2
smoothSolver:  Solving for Uz, Initial residual = 0.122751, Final residual = 0.00414388, No Iterations 2
GAMG:  Solving for p, Initial residual = 0.220256, Final residual = 0.0100663, No Iterations 26
GAMG:  Solving for p, Initial residual = 0.149736, Final residual = 0.0069863, No Iterations 3
GAMG:  Solving for p, Initial residual = 0.0463866, Final residual = 0.00222478, No Iterations 11
time step continuity errors : sum local = 2.62171e-05, global = -4.50029e-06, cumulative = 4.64151e-05
smoothSolver:  Solving for epsilon, Initial residual = 0.0273496, Final residual = 0.000206643, No Iterations 1
smoothSolver:  Solving for k, Initial residual = 0.0117441, Final residual = 0.000842586, No Iterations 1
ExecutionTime = 25.4092 s  ClockTime = 26 s

Time = 20s

smoothSolver:  Solving for Ux, Initial residual = 0.0141262, Final residual = 0.000337319, No Iterations 2
smoothSolver:  Solving for Uy, Initial residual = 0.0742525, Final residual = 0.00300405, No Iterations 2
smoothSolver:  Solving for Uz, Initial residual = 0.12652, Final residual = 0.00405115, No Iterations 2
GAMG:  Solving for p, Initial residual = 0.217597, Final residual = 0.0101752, No Iterations 31
GAMG:  Solving for p, Initial residual = 0.202446, Final residual = 0.00854705, No Iterations 3
GAMG:  Solving for p, Initial residual = 0.0577585, Final residual = 0.00263721, No Iterations 11
time step continuity errors : sum local = 2.77193e-05, global = -5.02841e-06, cumulative = 4.13866e-05
smoothSolver:  Solving for epsilon, Initial residual = 0.0279292, Final residual = 0.00021233, No Iterations 1
smoothSolver:  Solving for k, Initial residual = 0.00951515, Final residual = 0.00077457, No Iterations 1
ExecutionTime = 26.5466 s  ClockTime = 27 s

Time = 21s

smoothSolver:  Solving for Ux, Initial residual = 0.0139312, Final residual = 0.00135576, No Iterations 1
smoothSolver:  Solving for Uy, Initial residual = 0.0709176, Final residual = 0.00312823, No Iterations 2
smoothSolver:  Solving for Uz, Initial residual = 0.119883, Final residual = 0.00384118, No Iterations 2
GAMG:  Solving for p, Initial residual = 0.182609, Final residual = 0.00888637, No Iterations 20
GAMG:  Solving for p, Initial residual = 0.247713, Final residual = 0.0117907, No Iterations 3
GAMG:  Solving for p, Initial residual = 0.0682153, Final residual = 0.00330133, No Iterations 11
time step continuity errors : sum local = 2.14113e-05, global = 4.29695e-06, cumulative = 4.56836e-05
smoothSolver:  Solving for epsilon, Initial residual = 0.0278238, Final residual = 0.000203161, No Iterations 1
smoothSolver:  Solving for k, Initial residual = 0.00934012, Final residual = 0.000738571, No Iterations 1
ExecutionTime = 27.5425 s  ClockTime = 28 s

Time = 22s

smoothSolver:  Solving for Ux, Initial residual = 0.0113117, Final residual = 0.000336933, No Iterations 2
smoothSolver:  Solving for Uy, Initial residual = 0.0682873, Final residual = 0.00310901, No Iterations 2
smoothSolver:  Solving for Uz, Initial residual = 0.105066, Final residual = 0.00349707, No Iterations 2
GAMG:  Solving for p, Initial residual = 0.176937, Final residual = 0.00879687, No Iterations 18
GAMG:  Solving for p, Initial residual = 0.162308, Final residual = 0.00714507, No Iterations 4
GAMG:  Solving for p, Initial residual = 0.0481989, Final residual = 0.00223684, No Iterations 14
time step continuity errors : sum local = 1.42396e-05, global = 2.32438e-06, cumulative = 4.8008e-05
smoothSolver:  Solving for epsilon, Initial residual = 0.02861, Final residual = 0.000203209, No Iterations 1
smoothSolver:  Solving for k, Initial residual = 0.00862631, Final residual = 0.000723297, No Iterations 1
ExecutionTime = 28.5814 s  ClockTime = 29 s

Time = 23s

smoothSolver:  Solving for Ux, Initial residual = 0.00966426, Final residual = 0.000346781, No Iterations 2
smoothSolver:  Solving for Uy, Initial residual = 0.0629188, Final residual = 0.00298033, No Iterations 2
smoothSolver:  Solving for Uz, Initial residual = 0.100483, Final residual = 0.00351573, No Iterations 2
GAMG:  Solving for p, Initial residual = 0.204054, Final residual = 0.00985311, No Iterations 21
GAMG:  Solving for p, Initial residual = 0.196447, Final residual = 0.00838173, No Iterations 4
GAMG:  Solving for p, Initial residual = 0.0604844, Final residual = 0.00297074, No Iterations 18
time step continuity errors : sum local = 1.62389e-05, global = 2.70771e-06, cumulative = 5.07157e-05
smoothSolver:  Solving for epsilon, Initial residual = 0.0286572, Final residual = 0.000201415, No Iterations 1
smoothSolver:  Solving for k, Initial residual = 0.00817434, Final residual = 0.000695383, No Iterations 1
ExecutionTime = 29.6755 s  ClockTime = 30 s

Time = 24s

smoothSolver:  Solving for Ux, Initial residual = 0.00945655, Final residual = 0.000341388, No Iterations 2
smoothSolver:  Solving for Uy, Initial residual = 0.0575606, Final residual = 0.00272588, No Iterations 2
smoothSolver:  Solving for Uz, Initial residual = 0.1052, Final residual = 0.00358, No Iterations 2
GAMG:  Solving for p, Initial residual = 0.263092, Final residual = 0.012573, No Iterations 18
GAMG:  Solving for p, Initial residual = 0.201672, Final residual = 0.00894419, No Iterations 4
GAMG:  Solving for p, Initial residual = 0.0658861, Final residual = 0.00320932, No Iterations 15
time step continuity errors : sum local = 1.58116e-05, global = 3.22098e-06, cumulative = 5.39367e-05
smoothSolver:  Solving for epsilon, Initial residual = 0.0287027, Final residual = 0.000204049, No Iterations 1
smoothSolver:  Solving for k, Initial residual = 0.00816366, Final residual = 0.000677542, No Iterations 1
ExecutionTime = 30.715 s  ClockTime = 31 s

Time = 25s

smoothSolver:  Solving for Ux, Initial residual = 0.00832458, Final residual = 0.000313609, No Iterations 2
smoothSolver:  Solving for Uy, Initial residual = 0.0581544, Final residual = 0.00259333, No Iterations 2
smoothSolver:  Solving for Uz, Initial residual = 0.112675, Final residual = 0.00358603, No Iterations 2
GAMG:  Solving for p, Initial residual = 0.254572, Final residual = 0.01266, No Iterations 14
GAMG:  Solving for p, Initial residual = 0.142066, Final residual = 0.00617493, No Iterations 4
GAMG:  Solving for p, Initial residual = 0.0443483, Final residual = 0.00219092, No Iterations 12
time step continuity errors : sum local = 1.25672e-05, global = -1.79566e-06, cumulative = 5.2141e-05
smoothSolver:  Solving for epsilon, Initial residual = 0.0287631, Final residual = 0.00020702, No Iterations 1
smoothSolver:  Solving for k, Initial residual = 0.00758535, Final residual = 0.000656672, No Iterations 1
ExecutionTime = 31.6268 s  ClockTime = 32 s

Time = 26s

smoothSolver:  Solving for Ux, Initial residual = 0.00830544, Final residual = 0.000279411, No Iterations 2
smoothSolver:  Solving for Uy, Initial residual = 0.0589322, Final residual = 0.00261501, No Iterations 2
smoothSolver:  Solving for Uz, Initial residual = 0.113969, Final residual = 0.00335104, No Iterations 2
GAMG:  Solving for p, Initial residual = 0.2091, Final residual = 0.0101676, No Iterations 15
GAMG:  Solving for p, Initial residual = 0.131209, Final residual = 0.00633737, No Iterations 4
GAMG:  Solving for p, Initial residual = 0.0426225, Final residual = 0.00205906, No Iterations 16
time step continuity errors : sum local = 1.10466e-05, global = -1.82344e-06, cumulative = 5.03176e-05
smoothSolver:  Solving for epsilon, Initial residual = 0.0293301, Final residual = 0.000214092, No Iterations 1
smoothSolver:  Solving for k, Initial residual = 0.00723989, Final residual = 0.00064473, No Iterations 1
ExecutionTime = 32.5876 s  ClockTime = 33 s

Time = 27s

smoothSolver:  Solving for Ux, Initial residual = 0.00802433, Final residual = 0.000257143, No Iterations 2
smoothSolver:  Solving for Uy, Initial residual = 0.0544973, Final residual = 0.00268323, No Iterations 2
smoothSolver:  Solving for Uz, Initial residual = 0.109106, Final residual = 0.00324575, No Iterations 2
GAMG:  Solving for p, Initial residual = 0.184614, Final residual = 0.00907963, No Iterations 15
GAMG:  Solving for p, Initial residual = 0.169235, Final residual = 0.00768732, No Iterations 4
GAMG:  Solving for p, Initial residual = 0.0531329, Final residual = 0.0026499, No Iterations 16
time step continuity errors : sum local = 1.29568e-05, global = -2.32675e-06, cumulative = 4.79908e-05
smoothSolver:  Solving for epsilon, Initial residual = 0.0299954, Final residual = 0.000219606, No Iterations 1
smoothSolver:  Solving for k, Initial residual = 0.00699253, Final residual = 0.000618072, No Iterations 1
ExecutionTime = 33.659 s  ClockTime = 34 s

Time = 28s

smoothSolver:  Solving for Ux, Initial residual = 0.00691667, Final residual = 0.000248088, No Iterations 2
smoothSolver:  Solving for Uy, Initial residual = 0.0549611, Final residual = 0.00273903, No Iterations 2
smoothSolver:  Solving for Uz, Initial residual = 0.103706, Final residual = 0.00322513, No Iterations 2
GAMG:  Solving for p, Initial residual = 0.177636, Final residual = 0.0083133, No Iterations 13
GAMG:  Solving for p, Initial residual = 0.173432, Final residual = 0.00865484, No Iterations 3
GAMG:  Solving for p, Initial residual = 0.0514469, Final residual = 0.00242178, No Iterations 11
time step continuity errors : sum local = 1.13319e-05, global = 2.066e-06, cumulative = 5.00568e-05
smoothSolver:  Solving for epsilon, Initial residual = 0.0306283, Final residual = 0.000221778, No Iterations 1
smoothSolver:  Solving for k, Initial residual = 0.00670534, Final residual = 0.000588712, No Iterations 1
ExecutionTime = 34.5514 s  ClockTime = 35 s

Time = 29s

smoothSolver:  Solving for Ux, Initial residual = 0.00592952, Final residual = 0.000249375, No Iterations 2
smoothSolver:  Solving for Uy, Initial residual = 0.0550576, Final residual = 0.00272962, No Iterations 2
smoothSolver:  Solving for Uz, Initial residual = 0.0965846, Final residual = 0.00305659, No Iterations 2
GAMG:  Solving for p, Initial residual = 0.171094, Final residual = 0.00841998, No Iterations 13
GAMG:  Solving for p, Initial residual = 0.114931, Final residual = 0.00506347, No Iterations 6
GAMG:  Solving for p, Initial residual = 0.0378381, Final residual = 0.00170068, No Iterations 14
time step continuity errors : sum local = 7.29748e-06, global = 1.1085e-06, cumulative = 5.11653e-05
smoothSolver:  Solving for epsilon, Initial residual = 0.0311029, Final residual = 0.00022185, No Iterations 1
smoothSolver:  Solving for k, Initial residual = 0.00633719, Final residual = 0.000571213, No Iterations 1
ExecutionTime = 35.474 s  ClockTime = 36 s

Time = 30s

smoothSolver:  Solving for Ux, Initial residual = 0.00571094, Final residual = 0.000252095, No Iterations 2
smoothSolver:  Solving for Uy, Initial residual = 0.0534936, Final residual = 0.00268254, No Iterations 2
smoothSolver:  Solving for Uz, Initial residual = 0.0922726, Final residual = 0.0029435, No Iterations 2
GAMG:  Solving for p, Initial residual = 0.164215, Final residual = 0.00753939, No Iterations 13
GAMG:  Solving for p, Initial residual = 0.101266, Final residual = 0.00449, No Iterations 6
GAMG:  Solving for p, Initial residual = 0.0354228, Final residual = 0.00166585, No Iterations 20
time step continuity errors : sum local = 6.67402e-06, global = 1.11511e-06, cumulative = 5.22804e-05
smoothSolver:  Solving for epsilon, Initial residual = 0.031584, Final residual = 0.000225066, No Iterations 1
smoothSolver:  Solving for k, Initial residual = 0.00630519, Final residual = 0.000561846, No Iterations 1
ExecutionTime = 36.5641 s  ClockTime = 37 s

Time = 31s

smoothSolver:  Solving for Ux, Initial residual = 0.00539695, Final residual = 0.000244029, No Iterations 2
smoothSolver:  Solving for Uy, Initial residual = 0.0495016, Final residual = 0.00256819, No Iterations 2
smoothSolver:  Solving for Uz, Initial residual = 0.0923056, Final residual = 0.00295568, No Iterations 2
GAMG:  Solving for p, Initial residual = 0.165009, Final residual = 0.00699266, No Iterations 13
GAMG:  Solving for p, Initial residual = 0.117546, Final residual = 0.00557186, No Iterations 4
GAMG:  Solving for p, Initial residual = 0.0400066, Final residual = 0.00191856, No Iterations 17
time step continuity errors : sum local = 7.36765e-06, global = 1.46673e-06, cumulative = 5.37472e-05
smoothSolver:  Solving for epsilon, Initial residual = 0.0319208, Final residual = 0.000228995, No Iterations 1
smoothSolver:  Solving for k, Initial residual = 0.00624593, Final residual = 0.000552305, No Iterations 1
ExecutionTime = 37.5832 s  ClockTime = 38 s

Time = 32s

smoothSolver:  Solving for Ux, Initial residual = 0.00518592, Final residual = 0.000227995, No Iterations 2
smoothSolver:  Solving for Uy, Initial residual = 0.0452517, Final residual = 0.00246142, No Iterations 2
smoothSolver:  Solving for Uz, Initial residual = 0.0927616, Final residual = 0.0028727, No Iterations 2
GAMG:  Solving for p, Initial residual = 0.170599, Final residual = 0.00843193, No Iterations 11
GAMG:  Solving for p, Initial residual = 0.10612, Final residual = 0.00493595, No Iterations 6
GAMG:  Solving for p, Initial residual = 0.03697, Final residual = 0.00171764, No Iterations 16
time step continuity errors : sum local = 6.34913e-06, global = -1.14212e-06, cumulative = 5.2605e-05
smoothSolver:  Solving for epsilon, Initial residual = 0.0322926, Final residual = 0.000232378, No Iterations 1
smoothSolver:  Solving for k, Initial residual = 0.00587091, Final residual = 0.000533781, No Iterations 1
ExecutionTime = 38.5613 s  ClockTime = 39 s

Time = 33s

smoothSolver:  Solving for Ux, Initial residual = 0.00505614, Final residual = 0.000216122, No Iterations 2
smoothSolver:  Solving for Uy, Initial residual = 0.0436262, Final residual = 0.00243116, No Iterations 2
smoothSolver:  Solving for Uz, Initial residual = 0.0901888, Final residual = 0.00278446, No Iterations 2
GAMG:  Solving for p, Initial residual = 0.167044, Final residual = 0.00778764, No Iterations 10
GAMG:  Solving for p, Initial residual = 0.0835621, Final residual = 0.00384586, No Iterations 8
GAMG:  Solving for p, Initial residual = 0.0315357, Final residual = 0.00156026, No Iterations 11
time step continuity errors : sum local = 5.35103e-06, global = -9.28831e-07, cumulative = 5.16762e-05
smoothSolver:  Solving for epsilon, Initial residual = 0.0327111, Final residual = 0.000236112, No Iterations 1
smoothSolver:  Solving for k, Initial residual = 0.00561655, Final residual = 0.000518524, No Iterations 1
ExecutionTime = 39.4449 s  ClockTime = 40 s

Time = 34s

smoothSolver:  Solving for Ux, Initial residual = 0.00468722, Final residual = 0.000206276, No Iterations 2
smoothSolver:  Solving for Uy, Initial residual = 0.046475, Final residual = 0.00251943, No Iterations 2
smoothSolver:  Solving for Uz, Initial residual = 0.0936387, Final residual = 0.00285304, No Iterations 2
GAMG:  Solving for p, Initial residual = 0.16145, Final residual = 0.00674703, No Iterations 11
GAMG:  Solving for p, Initial residual = 0.0956045, Final residual = 0.00455783, No Iterations 5
GAMG:  Solving for p, Initial residual = 0.03216, Final residual = 0.0015463, No Iterations 12
time step continuity errors : sum local = 5.33289e-06, global = -9.60251e-07, cumulative = 5.07159e-05
smoothSolver:  Solving for epsilon, Initial residual = 0.0332748, Final residual = 0.000240881, No Iterations 1
smoothSolver:  Solving for k, Initial residual = 0.00549094, Final residual = 0.000509426, No Iterations 1
ExecutionTime = 40.297 s  ClockTime = 41 s

Time = 35s

smoothSolver:  Solving for Ux, Initial residual = 0.00418533, Final residual = 0.000198373, No Iterations 2
smoothSolver:  Solving for Uy, Initial residual = 0.0480803, Final residual = 0.00263135, No Iterations 2
smoothSolver:  Solving for Uz, Initial residual = 0.0950121, Final residual = 0.00292744, No Iterations 2
GAMG:  Solving for p, Initial residual = 0.15699, Final residual = 0.00666421, No Iterations 11
GAMG:  Solving for p, Initial residual = 0.099676, Final residual = 0.0047809, No Iterations 4
GAMG:  Solving for p, Initial residual = 0.0321364, Final residual = 0.00153676, No Iterations 14
time step continuity errors : sum local = 5.56e-06, global = 1.12945e-06, cumulative = 5.18454e-05
smoothSolver:  Solving for epsilon, Initial residual = 0.0338817, Final residual = 0.000245572, No Iterations 1
smoothSolver:  Solving for k, Initial residual = 0.00533104, Final residual = 0.000500896, No Iterations 1
ExecutionTime = 41.1522 s  ClockTime = 42 s

Time = 36s

smoothSolver:  Solving for Ux, Initial residual = 0.00397798, Final residual = 0.000193445, No Iterations 2
smoothSolver:  Solving for Uy, Initial residual = 0.0467113, Final residual = 0.00267174, No Iterations 2
smoothSolver:  Solving for Uz, Initial residual = 0.0912819, Final residual = 0.00279365, No Iterations 2
GAMG:  Solving for p, Initial residual = 0.148335, Final residual = 0.00721579, No Iterations 8
GAMG:  Solving for p, Initial residual = 0.07678, Final residual = 0.00383866, No Iterations 5
GAMG:  Solving for p, Initial residual = 0.0257461, Final residual = 0.00119935, No Iterations 12
time step continuity errors : sum local = 4.3304e-06, global = 7.29583e-07, cumulative = 5.2575e-05
smoothSolver:  Solving for epsilon, Initial residual = 0.0344292, Final residual = 0.000248972, No Iterations 1
smoothSolver:  Solving for k, Initial residual = 0.00512889, Final residual = 0.000488269, No Iterations 1
ExecutionTime = 41.9574 s  ClockTime = 42 s

Time = 37s

smoothSolver:  Solving for Ux, Initial residual = 0.003956, Final residual = 0.000191053, No Iterations 2
smoothSolver:  Solving for Uy, Initial residual = 0.0440314, Final residual = 0.00264285, No Iterations 2
smoothSolver:  Solving for Uz, Initial residual = 0.0846054, Final residual = 0.00257828, No Iterations 2
GAMG:  Solving for p, Initial residual = 0.137735, Final residual = 0.00537578, No Iterations 9
GAMG:  Solving for p, Initial residual = 0.0618816, Final residual = 0.00243648, No Iterations 6
GAMG:  Solving for p, Initial residual = 0.0207038, Final residual = 0.000982647, No Iterations 10
time step continuity errors : sum local = 3.35882e-06, global = -6.28396e-07, cumulative = 5.19466e-05
smoothSolver:  Solving for epsilon, Initial residual = 0.0348021, Final residual = 0.000251588, No Iterations 1
smoothSolver:  Solving for k, Initial residual = 0.00490495, Final residual = 0.00047504, No Iterations 1
ExecutionTime = 42.7887 s  ClockTime = 43 s

Time = 38s

smoothSolver:  Solving for Ux, Initial residual = 0.00389305, Final residual = 0.000187655, No Iterations 2
smoothSolver:  Solving for Uy, Initial residual = 0.0417204, Final residual = 0.00258833, No Iterations 2
smoothSolver:  Solving for Uz, Initial residual = 0.0804754, Final residual = 0.00249082, No Iterations 2
GAMG:  Solving for p, Initial residual = 0.131882, Final residual = 0.00568353, No Iterations 9
GAMG:  Solving for p, Initial residual = 0.0625298, Final residual = 0.00309482, No Iterations 6
GAMG:  Solving for p, Initial residual = 0.0224496, Final residual = 0.00110579, No Iterations 17
time step continuity errors : sum local = 3.4961e-06, global = 6.79662e-07, cumulative = 5.26262e-05
smoothSolver:  Solving for epsilon, Initial residual = 0.0351012, Final residual = 0.000254358, No Iterations 1
smoothSolver:  Solving for k, Initial residual = 0.00476582, Final residual = 0.000464125, No Iterations 1
ExecutionTime = 43.7966 s  ClockTime = 44 s

Time = 39s

smoothSolver:  Solving for Ux, Initial residual = 0.00364336, Final residual = 0.000180791, No Iterations 2
smoothSolver:  Solving for Uy, Initial residual = 0.0429724, Final residual = 0.0025742, No Iterations 2
smoothSolver:  Solving for Uz, Initial residual = 0.0807226, Final residual = 0.00255339, No Iterations 2
GAMG:  Solving for p, Initial residual = 0.132527, Final residual = 0.0058384, No Iterations 8
GAMG:  Solving for p, Initial residual = 0.066133, Final residual = 0.00320499, No Iterations 7
GAMG:  Solving for p, Initial residual = 0.0256604, Final residual = 0.00127867, No Iterations 15
time step continuity errors : sum local = 3.81306e-06, global = 7.94006e-07, cumulative = 5.34203e-05
smoothSolver:  Solving for epsilon, Initial residual = 0.0353325, Final residual = 0.000256418, No Iterations 1
smoothSolver:  Solving for k, Initial residual = 0.00464889, Final residual = 0.000452476, No Iterations 1
ExecutionTime = 44.6853 s  ClockTime = 45 s

Time = 40s

smoothSolver:  Solving for Ux, Initial residual = 0.00343514, Final residual = 0.000173837, No Iterations 2
smoothSolver:  Solving for Uy, Initial residual = 0.0457846, Final residual = 0.00262615, No Iterations 2
smoothSolver:  Solving for Uz, Initial residual = 0.0834244, Final residual = 0.00262234, No Iterations 2
GAMG:  Solving for p, Initial residual = 0.134077, Final residual = 0.00613514, No Iterations 7
GAMG:  Solving for p, Initial residual = 0.0575948, Final residual = 0.00248607, No Iterations 8
GAMG:  Solving for p, Initial residual = 0.0224913, Final residual = 0.0010384, No Iterations 12
time step continuity errors : sum local = 3.01573e-06, global = 5.30094e-07, cumulative = 5.39503e-05
smoothSolver:  Solving for epsilon, Initial residual = 0.0356395, Final residual = 0.000258678, No Iterations 1
smoothSolver:  Solving for k, Initial residual = 0.00446064, Final residual = 0.000438454, No Iterations 1
ExecutionTime = 45.5518 s  ClockTime = 46 s

Time = 41s

smoothSolver:  Solving for Ux, Initial residual = 0.00327975, Final residual = 0.000165968, No Iterations 2
smoothSolver:  Solving for Uy, Initial residual = 0.0469817, Final residual = 0.00270088, No Iterations 2
smoothSolver:  Solving for Uz, Initial residual = 0.083289, Final residual = 0.00258033, No Iterations 2
GAMG:  Solving for p, Initial residual = 0.131091, Final residual = 0.00603573, No Iterations 7
GAMG:  Solving for p, Initial residual = 0.0527459, Final residual = 0.00229202, No Iterations 8
GAMG:  Solving for p, Initial residual = 0.0209357, Final residual = 0.00101239, No Iterations 8
time step continuity errors : sum local = 2.99382e-06, global = 3.55383e-07, cumulative = 5.43057e-05
smoothSolver:  Solving for epsilon, Initial residual = 0.0359579, Final residual = 0.000260618, No Iterations 1
smoothSolver:  Solving for k, Initial residual = 0.00426105, Final residual = 0.00042608, No Iterations 1
ExecutionTime = 46.3155 s  ClockTime = 47 s

Time = 42s

smoothSolver:  Solving for Ux, Initial residual = 0.0031662, Final residual = 0.000159275, No Iterations 2
smoothSolver:  Solving for Uy, Initial residual = 0.0464695, Final residual = 0.00274711, No Iterations 2
smoothSolver:  Solving for Uz, Initial residual = 0.079538, Final residual = 0.00252025, No Iterations 2
GAMG:  Solving for p, Initial residual = 0.125548, Final residual = 0.00601706, No Iterations 7
GAMG:  Solving for p, Initial residual = 0.0586119, Final residual = 0.00286832, No Iterations 5
GAMG:  Solving for p, Initial residual = 0.0203699, Final residual = 0.00101612, No Iterations 8
time step continuity errors : sum local = 3.0927e-06, global = 4.88521e-07, cumulative = 5.47943e-05
smoothSolver:  Solving for epsilon, Initial residual = 0.036346, Final residual = 0.000263883, No Iterations 1
smoothSolver:  Solving for k, Initial residual = 0.00408894, Final residual = 5.71181e-05, No Iterations 2
ExecutionTime = 47.0306 s  ClockTime = 47 s

Time = 43s

smoothSolver:  Solving for Ux, Initial residual = 0.003045, Final residual = 0.000154175, No Iterations 2
smoothSolver:  Solving for Uy, Initial residual = 0.0449408, Final residual = 0.00274919, No Iterations 2
smoothSolver:  Solving for Uz, Initial residual = 0.0741743, Final residual = 0.00241992, No Iterations 2
GAMG:  Solving for p, Initial residual = 0.121715, Final residual = 0.00606913, No Iterations 7
GAMG:  Solving for p, Initial residual = 0.0563781, Final residual = 0.00221964, No Iterations 6
GAMG:  Solving for p, Initial residual = 0.0186636, Final residual = 0.000850747, No Iterations 8
time step continuity errors : sum local = 2.62784e-06, global = -3.5126e-07, cumulative = 5.4443e-05
smoothSolver:  Solving for epsilon, Initial residual = 0.0367507, Final residual = 0.000268765, No Iterations 1
smoothSolver:  Solving for k, Initial residual = 0.00393967, Final residual = 5.53793e-05, No Iterations 2
ExecutionTime = 47.7506 s  ClockTime = 48 s

Time = 44s

smoothSolver:  Solving for Ux, Initial residual = 0.00288703, Final residual = 0.000151018, No Iterations 2
smoothSolver:  Solving for Uy, Initial residual = 0.0447398, Final residual = 0.00273234, No Iterations 2
smoothSolver:  Solving for Uz, Initial residual = 0.0722271, Final residual = 0.00229972, No Iterations 2
GAMG:  Solving for p, Initial residual = 0.115358, Final residual = 0.00542238, No Iterations 7
GAMG:  Solving for p, Initial residual = 0.0489006, Final residual = 0.00206698, No Iterations 6
GAMG:  Solving for p, Initial residual = 0.0160625, Final residual = 0.000722838, No Iterations 8
time step continuity errors : sum local = 2.20452e-06, global = -2.0643e-07, cumulative = 5.42366e-05
smoothSolver:  Solving for epsilon, Initial residual = 0.0371316, Final residual = 0.000272088, No Iterations 1
smoothSolver:  Solving for k, Initial residual = 0.00379528, Final residual = 5.29637e-05, No Iterations 2
ExecutionTime = 48.4799 s  ClockTime = 49 s

Time = 45s

smoothSolver:  Solving for Ux, Initial residual = 0.00270234, Final residual = 0.000148237, No Iterations 2
smoothSolver:  Solving for Uy, Initial residual = 0.045925, Final residual = 0.00272507, No Iterations 2
smoothSolver:  Solving for Uz, Initial residual = 0.0723348, Final residual = 0.00223207, No Iterations 2
GAMG:  Solving for p, Initial residual = 0.107731, Final residual = 0.00521804, No Iterations 6
GAMG:  Solving for p, Initial residual = 0.0426279, Final residual = 0.00211165, No Iterations 6
GAMG:  Solving for p, Initial residual = 0.0148124, Final residual = 0.000724806, No Iterations 8
time step continuity errors : sum local = 2.13259e-06, global = 3.90799e-07, cumulative = 5.46274e-05
smoothSolver:  Solving for epsilon, Initial residual = 0.0374209, Final residual = 0.000273286, No Iterations 1
smoothSolver:  Solving for k, Initial residual = 0.00365321, Final residual = 5.07818e-05, No Iterations 2
ExecutionTime = 49.1892 s  ClockTime = 50 s

Time = 46s

smoothSolver:  Solving for Ux, Initial residual = 0.00257816, Final residual = 0.000144838, No Iterations 2
smoothSolver:  Solving for Uy, Initial residual = 0.0459688, Final residual = 0.00271766, No Iterations 2
smoothSolver:  Solving for Uz, Initial residual = 0.0702034, Final residual = 0.00223101, No Iterations 2
GAMG:  Solving for p, Initial residual = 0.103943, Final residual = 0.00418968, No Iterations 7
GAMG:  Solving for p, Initial residual = 0.0411806, Final residual = 0.00171767, No Iterations 6
GAMG:  Solving for p, Initial residual = 0.0144951, Final residual = 0.000694103, No Iterations 10
time step continuity errors : sum local = 1.94899e-06, global = 3.11638e-07, cumulative = 5.4939e-05
smoothSolver:  Solving for epsilon, Initial residual = 0.037651, Final residual = 0.000274985, No Iterations 1
smoothSolver:  Solving for k, Initial residual = 0.00349939, Final residual = 4.86996e-05, No Iterations 2
ExecutionTime = 49.949 s  ClockTime = 50 s

Time = 47s

smoothSolver:  Solving for Ux, Initial residual = 0.00249076, Final residual = 0.000140209, No Iterations 2
smoothSolver:  Solving for Uy, Initial residual = 0.044405, Final residual = 0.00270692, No Iterations 2
smoothSolver:  Solving for Uz, Initial residual = 0.0656644, Final residual = 0.00221563, No Iterations 2
GAMG:  Solving for p, Initial residual = 0.10248, Final residual = 0.00500947, No Iterations 7
GAMG:  Solving for p, Initial residual = 0.0405024, Final residual = 0.00177757, No Iterations 8
GAMG:  Solving for p, Initial residual = 0.0163875, Final residual = 0.000753854, No Iterations 12
time step continuity errors : sum local = 2.03554e-06, global = 2.84846e-07, cumulative = 5.52238e-05
smoothSolver:  Solving for epsilon, Initial residual = 0.0378661, Final residual = 0.000276022, No Iterations 1
smoothSolver:  Solving for k, Initial residual = 0.00335178, Final residual = 4.71241e-05, No Iterations 2
ExecutionTime = 50.7827 s  ClockTime = 51 s

Time = 48s

smoothSolver:  Solving for Ux, Initial residual = 0.00243522, Final residual = 0.000134699, No Iterations 2
smoothSolver:  Solving for Uy, Initial residual = 0.0424291, Final residual = 0.00269325, No Iterations 2
smoothSolver:  Solving for Uz, Initial residual = 0.0619644, Final residual = 0.00217089, No Iterations 2
GAMG:  Solving for p, Initial residual = 0.100466, Final residual = 0.00480274, No Iterations 7
GAMG:  Solving for p, Initial residual = 0.0388723, Final residual = 0.00183672, No Iterations 8
GAMG:  Solving for p, Initial residual = 0.0164402, Final residual = 0.000718191, No Iterations 12
time step continuity errors : sum local = 1.91839e-06, global = 2.56399e-07, cumulative = 5.54802e-05
smoothSolver:  Solving for epsilon, Initial residual = 0.0381083, Final residual = 0.000278305, No Iterations 1
smoothSolver:  Solving for k, Initial residual = 0.00324083, Final residual = 4.54556e-05, No Iterations 2
ExecutionTime = 51.6194 s  ClockTime = 52 s

Time = 49s

smoothSolver:  Solving for Ux, Initial residual = 0.00233575, Final residual = 0.000129568, No Iterations 2
smoothSolver:  Solving for Uy, Initial residual = 0.0411089, Final residual = 0.00267889, No Iterations 2
smoothSolver:  Solving for Uz, Initial residual = 0.0606527, Final residual = 0.00210832, No Iterations 2
GAMG:  Solving for p, Initial residual = 0.0959348, Final residual = 0.00473916, No Iterations 6
GAMG:  Solving for p, Initial residual = 0.0402788, Final residual = 0.00163977, No Iterations 7
GAMG:  Solving for p, Initial residual = 0.0152945, Final residual = 0.000753452, No Iterations 8
time step continuity errors : sum local = 2.02388e-06, global = 2.15059e-07, cumulative = 5.56953e-05
smoothSolver:  Solving for epsilon, Initial residual = 0.0383843, Final residual = 0.000280496, No Iterations 1
smoothSolver:  Solving for k, Initial residual = 0.00312865, Final residual = 4.40146e-05, No Iterations 2
ExecutionTime = 52.3412 s  ClockTime = 53 s

Time = 50s

smoothSolver:  Solving for Ux, Initial residual = 0.00218913, Final residual = 0.000125497, No Iterations 2
smoothSolver:  Solving for Uy, Initial residual = 0.0405142, Final residual = 0.0026651, No Iterations 2
smoothSolver:  Solving for Uz, Initial residual = 0.0587748, Final residual = 0.00204429, No Iterations 2
GAMG:  Solving for p, Initial residual = 0.0922106, Final residual = 0.00356684, No Iterations 7
GAMG:  Solving for p, Initial residual = 0.0419741, Final residual = 0.00173579, No Iterations 4
GAMG:  Solving for p, Initial residual = 0.0137094, Final residual = 0.000645737, No Iterations 6
time step continuity errors : sum local = 1.72624e-06, global = -2.49382e-07, cumulative = 5.54459e-05
smoothSolver:  Solving for epsilon, Initial residual = 0.0386583, Final residual = 0.000283505, No Iterations 1
smoothSolver:  Solving for k, Initial residual = 0.0030338, Final residual = 4.29228e-05, No Iterations 2
ExecutionTime = 52.998 s  ClockTime = 53 s

Time = 51s

smoothSolver:  Solving for Ux, Initial residual = 0.00203985, Final residual = 0.000122279, No Iterations 2
smoothSolver:  Solving for Uy, Initial residual = 0.0400086, Final residual = 0.00265311, No Iterations 2
smoothSolver:  Solving for Uz, Initial residual = 0.0564025, Final residual = 0.00198113, No Iterations 2
GAMG:  Solving for p, Initial residual = 0.0889028, Final residual = 0.0035523, No Iterations 7
GAMG:  Solving for p, Initial residual = 0.0408941, Final residual = 0.00172617, No Iterations 4
GAMG:  Solving for p, Initial residual = 0.0131233, Final residual = 0.000484042, No Iterations 8
time step continuity errors : sum local = 1.26849e-06, global = -9.75933e-08, cumulative = 5.53483e-05
smoothSolver:  Solving for epsilon, Initial residual = 0.0389274, Final residual = 0.000286055, No Iterations 1
smoothSolver:  Solving for k, Initial residual = 0.00293005, Final residual = 4.15461e-05, No Iterations 2
ExecutionTime = 53.6863 s  ClockTime = 54 s

Time = 52s

smoothSolver:  Solving for Ux, Initial residual = 0.00192307, Final residual = 0.000119344, No Iterations 2
smoothSolver:  Solving for Uy, Initial residual = 0.0392661, Final residual = 0.00263936, No Iterations 2
smoothSolver:  Solving for Uz, Initial residual = 0.0549044, Final residual = 0.00192449, No Iterations 2
GAMG:  Solving for p, Initial residual = 0.0850603, Final residual = 0.00391824, No Iterations 6
GAMG:  Solving for p, Initial residual = 0.0381782, Final residual = 0.00163526, No Iterations 5
GAMG:  Solving for p, Initial residual = 0.0130219, Final residual = 0.000587967, No Iterations 8
time step continuity errors : sum local = 1.50538e-06, global = -1.5237e-07, cumulative = 5.5196e-05
smoothSolver:  Solving for epsilon, Initial residual = 0.0391676, Final residual = 0.000287745, No Iterations 1
smoothSolver:  Solving for k, Initial residual = 0.0028207, Final residual = 4.02719e-05, No Iterations 2
ExecutionTime = 54.3798 s  ClockTime = 55 s

Time = 53s

smoothSolver:  Solving for Ux, Initial residual = 0.00184073, Final residual = 0.00011624, No Iterations 2
smoothSolver:  Solving for Uy, Initial residual = 0.0387105, Final residual = 0.00262769, No Iterations 2
smoothSolver:  Solving for Uz, Initial residual = 0.0525809, Final residual = 0.00188386, No Iterations 2
GAMG:  Solving for p, Initial residual = 0.0797098, Final residual = 0.00345825, No Iterations 6
GAMG:  Solving for p, Initial residual = 0.0363308, Final residual = 0.00171034, No Iterations 5
GAMG:  Solving for p, Initial residual = 0.0127862, Final residual = 0.000630718, No Iterations 8
time step continuity errors : sum local = 1.56977e-06, global = -2.36505e-07, cumulative = 5.49595e-05
smoothSolver:  Solving for epsilon, Initial residual = 0.0393912, Final residual = 0.000289769, No Iterations 1
smoothSolver:  Solving for k, Initial residual = 0.00272606, Final residual = 3.92423e-05, No Iterations 2
ExecutionTime = 55.1411 s  ClockTime = 56 s

Time = 54s

smoothSolver:  Solving for Ux, Initial residual = 0.00177915, Final residual = 0.000112636, No Iterations 2
smoothSolver:  Solving for Uy, Initial residual = 0.0387111, Final residual = 0.00262404, No Iterations 2
smoothSolver:  Solving for Uz, Initial residual = 0.0492226, Final residual = 0.00184416, No Iterations 2
GAMG:  Solving for p, Initial residual = 0.0759354, Final residual = 0.00323881, No Iterations 7
GAMG:  Solving for p, Initial residual = 0.0359041, Final residual = 0.001788, No Iterations 5
GAMG:  Solving for p, Initial residual = 0.0127272, Final residual = 0.000567416, No Iterations 9
time step continuity errors : sum local = 1.37179e-06, global = 2.05231e-07, cumulative = 5.51647e-05
smoothSolver:  Solving for epsilon, Initial residual = 0.0396008, Final residual = 0.000291834, No Iterations 1
smoothSolver:  Solving for k, Initial residual = 0.00264099, Final residual = 3.81056e-05, No Iterations 2
ExecutionTime = 55.8807 s  ClockTime = 56 s

Time = 55s

smoothSolver:  Solving for Ux, Initial residual = 0.00171849, Final residual = 0.000108711, No Iterations 2
smoothSolver:  Solving for Uy, Initial residual = 0.0391267, Final residual = 0.00262682, No Iterations 2
smoothSolver:  Solving for Uz, Initial residual = 0.0454037, Final residual = 0.00179432, No Iterations 2
GAMG:  Solving for p, Initial residual = 0.0739598, Final residual = 0.00348835, No Iterations 7
GAMG:  Solving for p, Initial residual = 0.0339684, Final residual = 0.00158883, No Iterations 6
GAMG:  Solving for p, Initial residual = 0.0125432, Final residual = 0.000586389, No Iterations 12
time step continuity errors : sum local = 1.39066e-06, global = 1.8762e-07, cumulative = 5.53523e-05
smoothSolver:  Solving for epsilon, Initial residual = 0.0397661, Final residual = 0.000292873, No Iterations 1
smoothSolver:  Solving for k, Initial residual = 0.00256487, Final residual = 3.71547e-05, No Iterations 2
ExecutionTime = 56.714 s  ClockTime = 57 s

Time = 56s

smoothSolver:  Solving for Ux, Initial residual = 0.00164895, Final residual = 0.000104879, No Iterations 2
smoothSolver:  Solving for Uy, Initial residual = 0.0396305, Final residual = 0.00262495, No Iterations 2
smoothSolver:  Solving for Uz, Initial residual = 0.0435012, Final residual = 0.00175039, No Iterations 2
GAMG:  Solving for p, Initial residual = 0.072369, Final residual = 0.00309909, No Iterations 7
GAMG:  Solving for p, Initial residual = 0.032608, Final residual = 0.00142583, No Iterations 6
GAMG:  Solving for p, Initial residual = 0.0117662, Final residual = 0.00054878, No Iterations 14
time step continuity errors : sum local = 1.28904e-06, global = 1.96996e-07, cumulative = 5.55493e-05
smoothSolver:  Solving for epsilon, Initial residual = 0.0399644, Final residual = 0.000295021, No Iterations 1
smoothSolver:  Solving for k, Initial residual = 0.00250638, Final residual = 3.61263e-05, No Iterations 2
ExecutionTime = 57.5831 s  ClockTime = 58 s

Time = 57s

smoothSolver:  Solving for Ux, Initial residual = 0.00158914, Final residual = 0.000101519, No Iterations 2
smoothSolver:  Solving for Uy, Initial residual = 0.0393481, Final residual = 0.00260874, No Iterations 2
smoothSolver:  Solving for Uz, Initial residual = 0.042836, Final residual = 0.00172189, No Iterations 2
GAMG:  Solving for p, Initial residual = 0.0682543, Final residual = 0.00265758, No Iterations 6
GAMG:  Solving for p, Initial residual = 0.0316427, Final residual = 0.00130778, No Iterations 5
GAMG:  Solving for p, Initial residual = 0.0110746, Final residual = 0.000514544, No Iterations 12
time step continuity errors : sum local = 1.19371e-06, global = 1.70075e-07, cumulative = 5.57194e-05
smoothSolver:  Solving for epsilon, Initial residual = 0.040178, Final residual = 0.00029712, No Iterations 1
smoothSolver:  Solving for k, Initial residual = 0.00244871, Final residual = 3.53201e-05, No Iterations 2
ExecutionTime = 58.3945 s  ClockTime = 59 s

Time = 58s

smoothSolver:  Solving for Ux, Initial residual = 0.00153858, Final residual = 9.85048e-05, No Iterations 2
smoothSolver:  Solving for Uy, Initial residual = 0.0383255, Final residual = 0.002578, No Iterations 2
smoothSolver:  Solving for Uz, Initial residual = 0.0415675, Final residual = 0.00170221, No Iterations 2
GAMG:  Solving for p, Initial residual = 0.0627107, Final residual = 0.00238863, No Iterations 7
GAMG:  Solving for p, Initial residual = 0.0305286, Final residual = 0.00139035, No Iterations 4
GAMG:  Solving for p, Initial residual = 0.0100751, Final residual = 0.000477536, No Iterations 12
time step continuity errors : sum local = 1.0912e-06, global = -2.31169e-07, cumulative = 5.54882e-05
smoothSolver:  Solving for epsilon, Initial residual = 0.040406, Final residual = 0.000298995, No Iterations 1
smoothSolver:  Solving for k, Initial residual = 0.00240536, Final residual = 3.44493e-05, No Iterations 2
ExecutionTime = 59.1835 s  ClockTime = 60 s

Time = 59s

smoothSolver:  Solving for Ux, Initial residual = 0.00149697, Final residual = 9.56341e-05, No Iterations 2
smoothSolver:  Solving for Uy, Initial residual = 0.0370999, Final residual = 0.00253702, No Iterations 2
smoothSolver:  Solving for Uz, Initial residual = 0.0392265, Final residual = 0.00166925, No Iterations 2
GAMG:  Solving for p, Initial residual = 0.0587633, Final residual = 0.00262264, No Iterations 7
GAMG:  Solving for p, Initial residual = 0.0298405, Final residual = 0.00122106, No Iterations 6
GAMG:  Solving for p, Initial residual = 0.0104916, Final residual = 0.000472414, No Iterations 10
time step continuity errors : sum local = 1.05295e-06, global = -1.5018e-07, cumulative = 5.5338e-05
smoothSolver:  Solving for epsilon, Initial residual = 0.0406377, Final residual = 0.000301075, No Iterations 1
smoothSolver:  Solving for k, Initial residual = 0.00236352, Final residual = 3.37125e-05, No Iterations 2
bounding k, min: -0.00656466 max: 8.85542 average: 1.3957
ExecutionTime = 59.9892 s  ClockTime = 60 s

Time = 60s

smoothSolver:  Solving for Ux, Initial residual = 0.00146957, Final residual = 9.27232e-05, No Iterations 2
smoothSolver:  Solving for Uy, Initial residual = 0.036339, Final residual = 0.00249885, No Iterations 2
smoothSolver:  Solving for Uz, Initial residual = 0.0365741, Final residual = 0.0016314, No Iterations 2
GAMG:  Solving for p, Initial residual = 0.0563587, Final residual = 0.00280949, No Iterations 7
GAMG:  Solving for p, Initial residual = 0.0302655, Final residual = 0.00123673, No Iterations 6
GAMG:  Solving for p, Initial residual = 0.010941, Final residual = 0.000469826, No Iterations 10
time step continuity errors : sum local = 1.01951e-06, global = -1.51535e-07, cumulative = 5.51865e-05
smoothSolver:  Solving for epsilon, Initial residual = 0.0408461, Final residual = 0.000303404, No Iterations 1
smoothSolver:  Solving for k, Initial residual = 0.00232229, Final residual = 3.29728e-05, No Iterations 2
ExecutionTime = 60.7767 s  ClockTime = 61 s

Time = 61s

smoothSolver:  Solving for Ux, Initial residual = 0.00145499, Final residual = 8.95735e-05, No Iterations 2
smoothSolver:  Solving for Uy, Initial residual = 0.0363398, Final residual = 0.0024724, No Iterations 2
smoothSolver:  Solving for Uz, Initial residual = 0.0351641, Final residual = 0.00159841, No Iterations 2
GAMG:  Solving for p, Initial residual = 0.0532439, Final residual = 0.00218296, No Iterations 8
GAMG:  Solving for p, Initial residual = 0.0311304, Final residual = 0.00145245, No Iterations 4
GAMG:  Solving for p, Initial residual = 0.0107016, Final residual = 0.000506569, No Iterations 10
time step continuity errors : sum local = 1.07818e-06, global = 1.53093e-07, cumulative = 5.53396e-05
smoothSolver:  Solving for epsilon, Initial residual = 0.0410412, Final residual = 0.000305019, No Iterations 1
smoothSolver:  Solving for k, Initial residual = 0.00228626, Final residual = 3.21322e-05, No Iterations 2
ExecutionTime = 61.5204 s  ClockTime = 62 s

Time = 62s

smoothSolver:  Solving for Ux, Initial residual = 0.00144221, Final residual = 8.62719e-05, No Iterations 2
smoothSolver:  Solving for Uy, Initial residual = 0.0365832, Final residual = 0.00245257, No Iterations 2
smoothSolver:  Solving for Uz, Initial residual = 0.0341618, Final residual = 0.00156457, No Iterations 2
GAMG:  Solving for p, Initial residual = 0.048907, Final residual = 0.00200218, No Iterations 9
GAMG:  Solving for p, Initial residual = 0.0309389, Final residual = 0.00136343, No Iterations 4
GAMG:  Solving for p, Initial residual = 0.0103903, Final residual = 0.00049599, No Iterations 12
time step continuity errors : sum local = 1.03678e-06, global = 1.48002e-07, cumulative = 5.54876e-05
smoothSolver:  Solving for epsilon, Initial residual = 0.0412737, Final residual = 0.00030731, No Iterations 1
smoothSolver:  Solving for k, Initial residual = 0.00225856, Final residual = 3.13133e-05, No Iterations 2
ExecutionTime = 62.3035 s  ClockTime = 63 s

Time = 63s

smoothSolver:  Solving for Ux, Initial residual = 0.00142519, Final residual = 8.30125e-05, No Iterations 2
smoothSolver:  Solving for Uy, Initial residual = 0.0367023, Final residual = 0.0024313, No Iterations 2
smoothSolver:  Solving for Uz, Initial residual = 0.0329602, Final residual = 0.00152377, No Iterations 2
GAMG:  Solving for p, Initial residual = 0.0459733, Final residual = 0.00196222, No Iterations 9
GAMG:  Solving for p, Initial residual = 0.029494, Final residual = 0.00139382, No Iterations 4
GAMG:  Solving for p, Initial residual = 0.00992285, Final residual = 0.000485954, No Iterations 14
time step continuity errors : sum local = 1.00185e-06, global = 1.55968e-07, cumulative = 5.56436e-05
smoothSolver:  Solving for epsilon, Initial residual = 0.0414912, Final residual = 0.000308739, No Iterations 1
smoothSolver:  Solving for k, Initial residual = 0.00223921, Final residual = 3.06581e-05, No Iterations 2
ExecutionTime = 63.1189 s  ClockTime = 64 s

Time = 64s

smoothSolver:  Solving for Ux, Initial residual = 0.0014085, Final residual = 8.00092e-05, No Iterations 2
smoothSolver:  Solving for Uy, Initial residual = 0.036514, Final residual = 0.00240467, No Iterations 2
smoothSolver:  Solving for Uz, Initial residual = 0.0311676, Final residual = 0.00147994, No Iterations 2
GAMG:  Solving for p, Initial residual = 0.0444347, Final residual = 0.00206849, No Iterations 8
GAMG:  Solving for p, Initial residual = 0.027849, Final residual = 0.0012854, No Iterations 5
GAMG:  Solving for p, Initial residual = 0.0100613, Final residual = 0.000502066, No Iterations 12
time step continuity errors : sum local = 1.01715e-06, global = 1.47419e-07, cumulative = 5.5791e-05
smoothSolver:  Solving for epsilon, Initial residual = 0.041756, Final residual = 0.000311573, No Iterations 1
smoothSolver:  Solving for k, Initial residual = 0.00222051, Final residual = 0.000221213, No Iterations 1
ExecutionTime = 63.9039 s  ClockTime = 64 s

Time = 65s

smoothSolver:  Solving for Ux, Initial residual = 0.00139359, Final residual = 7.73569e-05, No Iterations 2
smoothSolver:  Solving for Uy, Initial residual = 0.0360793, Final residual = 0.00237147, No Iterations 2
smoothSolver:  Solving for Uz, Initial residual = 0.029489, Final residual = 0.00143324, No Iterations 2
GAMG:  Solving for p, Initial residual = 0.0423094, Final residual = 0.00210365, No Iterations 7
GAMG:  Solving for p, Initial residual = 0.0265376, Final residual = 0.0011958, No Iterations 5
GAMG:  Solving for p, Initial residual = 0.00902515, Final residual = 0.000406459, No Iterations 13
time step continuity errors : sum local = 8.17029e-07, global = 1.36842e-07, cumulative = 5.59278e-05
smoothSolver:  Solving for epsilon, Initial residual = 0.0419924, Final residual = 0.000312801, No Iterations 1
smoothSolver:  Solving for k, Initial residual = 0.00219438, Final residual = 0.000217256, No Iterations 1
bounding k, min: -0.120455 max: 8.76711 average: 1.39206
ExecutionTime = 64.6924 s  ClockTime = 65 s

Time = 66s

smoothSolver:  Solving for Ux, Initial residual = 0.00138053, Final residual = 7.48248e-05, No Iterations 2
smoothSolver:  Solving for Uy, Initial residual = 0.0356292, Final residual = 0.00233285, No Iterations 2
smoothSolver:  Solving for Uz, Initial residual = 0.0282856, Final residual = 0.00138067, No Iterations 2
GAMG:  Solving for p, Initial residual = 0.0388025, Final residual = 0.00159878, No Iterations 9
GAMG:  Solving for p, Initial residual = 0.0253671, Final residual = 0.00114355, No Iterations 4
GAMG:  Solving for p, Initial residual = 0.00848926, Final residual = 0.000387115, No Iterations 11
time step continuity errors : sum local = 7.67328e-07, global = 1.4405e-07, cumulative = 5.60719e-05
smoothSolver:  Solving for epsilon, Initial residual = 0.0422759, Final residual = 0.0003151, No Iterations 1
smoothSolver:  Solving for k, Initial residual = 0.0021647, Final residual = 0.000213839, No Iterations 1
ExecutionTime = 65.4615 s  ClockTime = 66 s

Time = 67s

smoothSolver:  Solving for Ux, Initial residual = 0.00136403, Final residual = 7.23033e-05, No Iterations 2
smoothSolver:  Solving for Uy, Initial residual = 0.0353273, Final residual = 0.00229516, No Iterations 2
smoothSolver:  Solving for Uz, Initial residual = 0.0271372, Final residual = 0.00132302, No Iterations 2
GAMG:  Solving for p, Initial residual = 0.0353734, Final residual = 0.00158433, No Iterations 9
GAMG:  Solving for p, Initial residual = 0.0246795, Final residual = 0.00110924, No Iterations 4
GAMG:  Solving for p, Initial residual = 0.00826644, Final residual = 0.000380446, No Iterations 10
time step continuity errors : sum local = 7.42085e-07, global = -1.39677e-07, cumulative = 5.59322e-05
smoothSolver:  Solving for epsilon, Initial residual = 0.0425321, Final residual = 0.000317847, No Iterations 1
smoothSolver:  Solving for k, Initial residual = 0.00213203, Final residual = 0.000209822, No Iterations 1
ExecutionTime = 66.2137 s  ClockTime = 67 s

Time = 68s

smoothSolver:  Solving for Ux, Initial residual = 0.00134647, Final residual = 6.97716e-05, No Iterations 2
smoothSolver:  Solving for Uy, Initial residual = 0.0350193, Final residual = 0.00225834, No Iterations 2
smoothSolver:  Solving for Uz, Initial residual = 0.025928, Final residual = 0.00126538, No Iterations 2
GAMG:  Solving for p, Initial residual = 0.0331366, Final residual = 0.00153997, No Iterations 9
GAMG:  Solving for p, Initial residual = 0.0244917, Final residual = 0.00109946, No Iterations 4
GAMG:  Solving for p, Initial residual = 0.00827033, Final residual = 0.000387348, No Iterations 9
time step continuity errors : sum local = 7.42412e-07, global = 1.345e-07, cumulative = 5.60667e-05
smoothSolver:  Solving for epsilon, Initial residual = 0.0428047, Final residual = 0.000320411, No Iterations 1
smoothSolver:  Solving for k, Initial residual = 0.00210132, Final residual = 0.000205496, No Iterations 1
ExecutionTime = 66.9856 s  ClockTime = 67 s

Time = 69s

smoothSolver:  Solving for Ux, Initial residual = 0.00133162, Final residual = 6.72786e-05, No Iterations 2
smoothSolver:  Solving for Uy, Initial residual = 0.0346166, Final residual = 0.00222464, No Iterations 2
smoothSolver:  Solving for Uz, Initial residual = 0.0244486, Final residual = 0.00120843, No Iterations 2
GAMG:  Solving for p, Initial residual = 0.0316079, Final residual = 0.00147832, No Iterations 8
GAMG:  Solving for p, Initial residual = 0.0237868, Final residual = 0.00103453, No Iterations 4
GAMG:  Solving for p, Initial residual = 0.00786866, Final residual = 0.000352944, No Iterations 12
time step continuity errors : sum local = 6.69852e-07, global = 9.48503e-08, cumulative = 5.61615e-05
smoothSolver:  Solving for epsilon, Initial residual = 0.0430799, Final residual = 0.000322842, No Iterations 1
smoothSolver:  Solving for k, Initial residual = 0.00206925, Final residual = 0.00020111, No Iterations 1
ExecutionTime = 67.7456 s  ClockTime = 68 s

Time = 70s

smoothSolver:  Solving for Ux, Initial residual = 0.00131507, Final residual = 6.4899e-05, No Iterations 2
smoothSolver:  Solving for Uy, Initial residual = 0.0341247, Final residual = 0.00219061, No Iterations 2
smoothSolver:  Solving for Uz, Initial residual = 0.0233524, Final residual = 0.00114966, No Iterations 2
GAMG:  Solving for p, Initial residual = 0.0295453, Final residual = 0.00135497, No Iterations 9
GAMG:  Solving for p, Initial residual = 0.0231215, Final residual = 0.000977362, No Iterations 4
GAMG:  Solving for p, Initial residual = 0.00762367, Final residual = 0.000351343, No Iterations 12
time step continuity errors : sum local = 6.60342e-07, global = 9.57649e-08, cumulative = 5.62573e-05
smoothSolver:  Solving for epsilon, Initial residual = 0.0433657, Final residual = 0.000325487, No Iterations 1
smoothSolver:  Solving for k, Initial residual = 0.00202827, Final residual = 0.000196215, No Iterations 1
ExecutionTime = 68.5264 s  ClockTime = 69 s

Time = 71s

smoothSolver:  Solving for Ux, Initial residual = 0.00129544, Final residual = 6.26651e-05, No Iterations 2
smoothSolver:  Solving for Uy, Initial residual = 0.0335583, Final residual = 0.0021543, No Iterations 2
smoothSolver:  Solving for Uz, Initial residual = 0.0223611, Final residual = 0.00109278, No Iterations 2
GAMG:  Solving for p, Initial residual = 0.027142, Final residual = 0.00127607, No Iterations 9
GAMG:  Solving for p, Initial residual = 0.0218455, Final residual = 0.000916299, No Iterations 4
GAMG:  Solving for p, Initial residual = 0.00722326, Final residual = 0.000338847, No Iterations 12
time step continuity errors : sum local = 6.31924e-07, global = 9.4993e-08, cumulative = 5.63523e-05
smoothSolver:  Solving for epsilon, Initial residual = 0.0437018, Final residual = 0.00032845, No Iterations 1
smoothSolver:  Solving for k, Initial residual = 0.00198028, Final residual = 0.000190201, No Iterations 1
ExecutionTime = 69.3031 s  ClockTime = 70 s

Time = 72s

smoothSolver:  Solving for Ux, Initial residual = 0.00126989, Final residual = 6.05841e-05, No Iterations 2
smoothSolver:  Solving for Uy, Initial residual = 0.032869, Final residual = 0.00211125, No Iterations 2
smoothSolver:  Solving for Uz, Initial residual = 0.0212168, Final residual = 0.00104497, No Iterations 2
GAMG:  Solving for p, Initial residual = 0.0255067, Final residual = 0.00113592, No Iterations 9
GAMG:  Solving for p, Initial residual = 0.0204974, Final residual = 0.000804364, No Iterations 4
GAMG:  Solving for p, Initial residual = 0.00668623, Final residual = 0.000293945, No Iterations 12
time step continuity errors : sum local = 5.4323e-07, global = 8.24071e-08, cumulative = 5.64347e-05
smoothSolver:  Solving for epsilon, Initial residual = 0.0440328, Final residual = 0.000331089, No Iterations 1
smoothSolver:  Solving for k, Initial residual = 0.00192858, Final residual = 0.000183423, No Iterations 1
ExecutionTime = 70.094 s  ClockTime = 71 s

Time = 73s

smoothSolver:  Solving for Ux, Initial residual = 0.00123885, Final residual = 5.86017e-05, No Iterations 2
smoothSolver:  Solving for Uy, Initial residual = 0.0321068, Final residual = 0.00206579, No Iterations 2
smoothSolver:  Solving for Uz, Initial residual = 0.0199485, Final residual = 0.0010039, No Iterations 2
GAMG:  Solving for p, Initial residual = 0.0242033, Final residual = 0.00112918, No Iterations 8
GAMG:  Solving for p, Initial residual = 0.0188281, Final residual = 0.000934094, No Iterations 3
GAMG:  Solving for p, Initial residual = 0.00608997, Final residual = 0.000257104, No Iterations 11
time step continuity errors : sum local = 4.7106e-07, global = 7.7177e-08, cumulative = 5.65119e-05
smoothSolver:  Solving for epsilon, Initial residual = 0.0444222, Final residual = 0.000333545, No Iterations 1
smoothSolver:  Solving for k, Initial residual = 0.00187844, Final residual = 0.000176305, No Iterations 1
ExecutionTime = 70.8497 s  ClockTime = 71 s

Time = 74s

smoothSolver:  Solving for Ux, Initial residual = 0.00120338, Final residual = 5.66797e-05, No Iterations 2
smoothSolver:  Solving for Uy, Initial residual = 0.031343, Final residual = 0.00201819, No Iterations 2
smoothSolver:  Solving for Uz, Initial residual = 0.0189651, Final residual = 0.000965795, No Iterations 2
GAMG:  Solving for p, Initial residual = 0.0225084, Final residual = 0.00111864, No Iterations 8
GAMG:  Solving for p, Initial residual = 0.0175006, Final residual = 0.000707501, No Iterations 4
GAMG:  Solving for p, Initial residual = 0.00567295, Final residual = 0.000279516, No Iterations 8
time step continuity errors : sum local = 5.08053e-07, global = 6.44829e-08, cumulative = 5.65764e-05
smoothSolver:  Solving for epsilon, Initial residual = 0.0447638, Final residual = 0.000335744, No Iterations 1
smoothSolver:  Solving for k, Initial residual = 0.00181947, Final residual = 0.000169688, No Iterations 1
bounding k, min: -0.0293745 max: 8.68227 average: 1.38189
ExecutionTime = 71.5651 s  ClockTime = 72 s

Time = 75s

smoothSolver:  Solving for Ux, Initial residual = 0.00116572, Final residual = 5.48079e-05, No Iterations 2
smoothSolver:  Solving for Uy, Initial residual = 0.0306238, Final residual = 0.0019688, No Iterations 2
smoothSolver:  Solving for Uz, Initial residual = 0.0182587, Final residual = 0.000929713, No Iterations 2
GAMG:  Solving for p, Initial residual = 0.0207493, Final residual = 0.000928709, No Iterations 9
GAMG:  Solving for p, Initial residual = 0.0172599, Final residual = 0.000811141, No Iterations 3
GAMG:  Solving for p, Initial residual = 0.0055995, Final residual = 0.000242637, No Iterations 8
time step continuity errors : sum local = 4.36178e-07, global = 5.80142e-08, cumulative = 5.66344e-05
smoothSolver:  Solving for epsilon, Initial residual = 0.0450999, Final residual = 0.000338413, No Iterations 1
smoothSolver:  Solving for k, Initial residual = 0.00174966, Final residual = 0.000162531, No Iterations 1
ExecutionTime = 72.2571 s  ClockTime = 73 s

Time = 76s

smoothSolver:  Solving for Ux, Initial residual = 0.00112881, Final residual = 5.29864e-05, No Iterations 2
smoothSolver:  Solving for Uy, Initial residual = 0.029983, Final residual = 0.00192129, No Iterations 2
smoothSolver:  Solving for Uz, Initial residual = 0.0175502, Final residual = 0.000894015, No Iterations 2
GAMG:  Solving for p, Initial residual = 0.0195315, Final residual = 0.000940836, No Iterations 9
GAMG:  Solving for p, Initial residual = 0.0172863, Final residual = 0.000807747, No Iterations 3
GAMG:  Solving for p, Initial residual = 0.00559249, Final residual = 0.000252069, No Iterations 8
time step continuity errors : sum local = 4.48796e-07, global = 5.58635e-08, cumulative = 5.66902e-05
smoothSolver:  Solving for epsilon, Initial residual = 0.0454559, Final residual = 0.000341345, No Iterations 1
smoothSolver:  Solving for k, Initial residual = 0.00167625, Final residual = 0.000155673, No Iterations 1
ExecutionTime = 72.9637 s  ClockTime = 73 s

Time = 77s

smoothSolver:  Solving for Ux, Initial residual = 0.00109121, Final residual = 5.12261e-05, No Iterations 2
smoothSolver:  Solving for Uy, Initial residual = 0.0294042, Final residual = 0.00187416, No Iterations 2
smoothSolver:  Solving for Uz, Initial residual = 0.0167999, Final residual = 0.000860994, No Iterations 2
GAMG:  Solving for p, Initial residual = 0.0186234, Final residual = 0.000913311, No Iterations 9
GAMG:  Solving for p, Initial residual = 0.0173844, Final residual = 0.00077182, No Iterations 3
GAMG:  Solving for p, Initial residual = 0.0055678, Final residual = 0.000247781, No Iterations 8
time step continuity errors : sum local = 4.37678e-07, global = 5.03759e-08, cumulative = 5.67406e-05
smoothSolver:  Solving for epsilon, Initial residual = 0.0457115, Final residual = 0.000342739, No Iterations 1
smoothSolver:  Solving for k, Initial residual = 0.00159986, Final residual = 0.000148605, No Iterations 1
ExecutionTime = 73.7211 s  ClockTime = 74 s

Time = 78s

smoothSolver:  Solving for Ux, Initial residual = 0.00105106, Final residual = 4.95211e-05, No Iterations 2
smoothSolver:  Solving for Uy, Initial residual = 0.028897, Final residual = 0.00182771, No Iterations 2
smoothSolver:  Solving for Uz, Initial residual = 0.0161987, Final residual = 0.000833683, No Iterations 2
GAMG:  Solving for p, Initial residual = 0.0175359, Final residual = 0.000800637, No Iterations 9
GAMG:  Solving for p, Initial residual = 0.0168294, Final residual = 0.000806681, No Iterations 3
GAMG:  Solving for p, Initial residual = 0.00540433, Final residual = 0.00021982, No Iterations 9
time step continuity errors : sum local = 3.85963e-07, global = 5.63061e-08, cumulative = 5.67969e-05
smoothSolver:  Solving for epsilon, Initial residual = 0.0460108, Final residual = 0.00034484, No Iterations 1
smoothSolver:  Solving for k, Initial residual = 0.00153, Final residual = 0.000141843, No Iterations 1
ExecutionTime = 74.4328 s  ClockTime = 75 s

Time = 79s

smoothSolver:  Solving for Ux, Initial residual = 0.00100736, Final residual = 4.78936e-05, No Iterations 2
smoothSolver:  Solving for Uy, Initial residual = 0.0284127, Final residual = 0.00178083, No Iterations 2
smoothSolver:  Solving for Uz, Initial residual = 0.0157708, Final residual = 0.0008124, No Iterations 2
GAMG:  Solving for p, Initial residual = 0.0164679, Final residual = 0.000777473, No Iterations 9
GAMG:  Solving for p, Initial residual = 0.016068, Final residual = 0.000771958, No Iterations 3
GAMG:  Solving for p, Initial residual = 0.00517108, Final residual = 0.00020755, No Iterations 9
time step continuity errors : sum local = 3.62545e-07, global = 5.30293e-08, cumulative = 5.685e-05
smoothSolver:  Solving for epsilon, Initial residual = 0.0463325, Final residual = 0.00034706, No Iterations 1
smoothSolver:  Solving for k, Initial residual = 0.00146005, Final residual = 0.000135666, No Iterations 1
ExecutionTime = 75.1445 s  ClockTime = 76 s

Time = 80s

smoothSolver:  Solving for Ux, Initial residual = 0.000960256, Final residual = 4.63844e-05, No Iterations 2
smoothSolver:  Solving for Uy, Initial residual = 0.0279416, Final residual = 0.00173325, No Iterations 2
[...]
GAMG:  Solving for p, Initial residual = 5.90044e-06, Final residual = 8.55259e-07, No Iterations 2
GAMG:  Solving for p, Initial residual = 1.55292e-06, Final residual = 4.52489e-07, No Iterations 1
GAMG:  Solving for p, Initial residual = 6.71669e-07, Final residual = 6.71669e-07, No Iterations 0
time step continuity errors : sum local = 1.13114e-09, global = -6.55261e-12, cumulative = 5.63973e-05
smoothSolver:  Solving for epsilon, Initial residual = 0.0515357, Final residual = 0.000378639, No Iterations 1
smoothSolver:  Solving for k, Initial residual = 8.59359e-07, Final residual = 9.44187e-08, No Iterations 1
ExecutionTime = 483.33 s  ClockTime = 489 s

Time = 982s

smoothSolver:  Solving for Ux, Initial residual = 1.05298e-07, Final residual = 4.98731e-09, No Iterations 1
smoothSolver:  Solving for Uy, Initial residual = 1.89597e-06, Final residual = 1.44798e-07, No Iterations 1
smoothSolver:  Solving for Uz, Initial residual = 5.33623e-06, Final residual = 3.90397e-07, No Iterations 1
GAMG:  Solving for p, Initial residual = 5.78778e-06, Final residual = 7.87551e-07, No Iterations 2
GAMG:  Solving for p, Initial residual = 1.45169e-06, Final residual = 4.13393e-07, No Iterations 1
GAMG:  Solving for p, Initial residual = 6.14567e-07, Final residual = 6.14567e-07, No Iterations 0
time step continuity errors : sum local = 1.03501e-09, global = -1.07324e-11, cumulative = 5.63973e-05
smoothSolver:  Solving for epsilon, Initial residual = 0.051529, Final residual = 0.00037859, No Iterations 1
smoothSolver:  Solving for k, Initial residual = 9.00939e-07, Final residual = 9.54835e-08, No Iterations 1
ExecutionTime = 483.716 s  ClockTime = 489 s

Time = 983s

smoothSolver:  Solving for Ux, Initial residual = 1.07689e-07, Final residual = 4.99806e-09, No Iterations 1
smoothSolver:  Solving for Uy, Initial residual = 1.89006e-06, Final residual = 1.45968e-07, No Iterations 1
smoothSolver:  Solving for Uz, Initial residual = 5.18922e-06, Final residual = 3.74371e-07, No Iterations 1
GAMG:  Solving for p, Initial residual = 5.62652e-06, Final residual = 7.56774e-07, No Iterations 2
GAMG:  Solving for p, Initial residual = 1.47703e-06, Final residual = 3.46163e-07, No Iterations 1
GAMG:  Solving for p, Initial residual = 5.61525e-07, Final residual = 5.61525e-07, No Iterations 0
time step continuity errors : sum local = 9.4565e-10, global = -3.95661e-12, cumulative = 5.63973e-05
smoothSolver:  Solving for epsilon, Initial residual = 0.0515357, Final residual = 0.000378638, No Iterations 1
smoothSolver:  Solving for k, Initial residual = 8.59442e-07, Final residual = 9.44459e-08, No Iterations 1
ExecutionTime = 484.1 s  ClockTime = 489 s

Time = 984s

smoothSolver:  Solving for Ux, Initial residual = 1.04382e-07, Final residual = 4.94501e-09, No Iterations 1
smoothSolver:  Solving for Uy, Initial residual = 1.91877e-06, Final residual = 1.4254e-07, No Iterations 1
smoothSolver:  Solving for Uz, Initial residual = 5.26748e-06, Final residual = 3.63847e-07, No Iterations 1
GAMG:  Solving for p, Initial residual = 5.36243e-06, Final residual = 7.99768e-07, No Iterations 2
GAMG:  Solving for p, Initial residual = 1.52943e-06, Final residual = 3.51735e-07, No Iterations 1
GAMG:  Solving for p, Initial residual = 5.81444e-07, Final residual = 5.81444e-07, No Iterations 0
time step continuity errors : sum local = 9.79224e-10, global = -2.39787e-13, cumulative = 5.63973e-05
smoothSolver:  Solving for epsilon, Initial residual = 0.051529, Final residual = 0.00037859, No Iterations 1
smoothSolver:  Solving for k, Initial residual = 9.0044e-07, Final residual = 9.54804e-08, No Iterations 1
ExecutionTime = 484.486 s  ClockTime = 490 s

Time = 985s

smoothSolver:  Solving for Ux, Initial residual = 1.04715e-07, Final residual = 4.89892e-09, No Iterations 1
smoothSolver:  Solving for Uy, Initial residual = 1.89537e-06, Final residual = 1.4016e-07, No Iterations 1
smoothSolver:  Solving for Uz, Initial residual = 5.32714e-06, Final residual = 3.72259e-07, No Iterations 1
GAMG:  Solving for p, Initial residual = 5.15613e-06, Final residual = 7.89142e-07, No Iterations 2
GAMG:  Solving for p, Initial residual = 1.44493e-06, Final residual = 3.8272e-07, No Iterations 1
GAMG:  Solving for p, Initial residual = 5.89021e-07, Final residual = 5.89021e-07, No Iterations 0
time step continuity errors : sum local = 9.91956e-10, global = 1.07618e-11, cumulative = 5.63973e-05
smoothSolver:  Solving for epsilon, Initial residual = 0.0515357, Final residual = 0.000378639, No Iterations 1
smoothSolver:  Solving for k, Initial residual = 8.58746e-07, Final residual = 9.43814e-08, No Iterations 1
ExecutionTime = 484.872 s  ClockTime = 490 s

Time = 986s

smoothSolver:  Solving for Ux, Initial residual = 1.03728e-07, Final residual = 4.84847e-09, No Iterations 1
smoothSolver:  Solving for Uy, Initial residual = 1.89609e-06, Final residual = 1.40269e-07, No Iterations 1
smoothSolver:  Solving for Uz, Initial residual = 5.28874e-06, Final residual = 3.79403e-07, No Iterations 1
GAMG:  Solving for p, Initial residual = 5.19034e-06, Final residual = 8.21721e-07, No Iterations 2
GAMG:  Solving for p, Initial residual = 1.47549e-06, Final residual = 4.43956e-07, No Iterations 1
GAMG:  Solving for p, Initial residual = 6.376e-07, Final residual = 6.376e-07, No Iterations 0
time step continuity errors : sum local = 1.0738e-09, global = 1.00209e-11, cumulative = 5.63973e-05
smoothSolver:  Solving for epsilon, Initial residual = 0.051529, Final residual = 0.000378589, No Iterations 1
smoothSolver:  Solving for k, Initial residual = 9.00286e-07, Final residual = 9.54769e-08, No Iterations 1
ExecutionTime = 485.257 s  ClockTime = 491 s

Time = 987s

smoothSolver:  Solving for Ux, Initial residual = 1.02634e-07, Final residual = 4.88146e-09, No Iterations 1
smoothSolver:  Solving for Uy, Initial residual = 1.88781e-06, Final residual = 1.39784e-07, No Iterations 1
smoothSolver:  Solving for Uz, Initial residual = 5.28636e-06, Final residual = 3.68674e-07, No Iterations 1
GAMG:  Solving for p, Initial residual = 5.28063e-06, Final residual = 9.01595e-07, No Iterations 2
GAMG:  Solving for p, Initial residual = 1.59763e-06, Final residual = 5.22858e-07, No Iterations 1
GAMG:  Solving for p, Initial residual = 7.20341e-07, Final residual = 7.20341e-07, No Iterations 0
time step continuity errors : sum local = 1.21311e-09, global = 1.12555e-11, cumulative = 5.63973e-05
smoothSolver:  Solving for epsilon, Initial residual = 0.0515357, Final residual = 0.000378639, No Iterations 1
smoothSolver:  Solving for k, Initial residual = 8.587e-07, Final residual = 9.443e-08, No Iterations 1
bounding k, min: -0.0151032 max: 8.45362 average: 1.34785
ExecutionTime = 485.646 s  ClockTime = 491 s

Time = 988s

smoothSolver:  Solving for Ux, Initial residual = 1.07291e-07, Final residual = 4.96919e-09, No Iterations 1
smoothSolver:  Solving for Uy, Initial residual = 1.89526e-06, Final residual = 1.46406e-07, No Iterations 1
smoothSolver:  Solving for Uz, Initial residual = 5.29142e-06, Final residual = 3.71396e-07, No Iterations 1
GAMG:  Solving for p, Initial residual = 6.9299e-06, Final residual = 8.12965e-07, No Iterations 2
GAMG:  Solving for p, Initial residual = 1.57604e-06, Final residual = 4.20144e-07, No Iterations 1
GAMG:  Solving for p, Initial residual = 6.33508e-07, Final residual = 6.33508e-07, No Iterations 0
time step continuity errors : sum local = 1.0669e-09, global = 1.61251e-12, cumulative = 5.63973e-05
smoothSolver:  Solving for epsilon, Initial residual = 0.051529, Final residual = 0.00037859, No Iterations 1
smoothSolver:  Solving for k, Initial residual = 9.01732e-07, Final residual = 9.54902e-08, No Iterations 1
ExecutionTime = 486.032 s  ClockTime = 491 s

Time = 989s

smoothSolver:  Solving for Ux, Initial residual = 1.04955e-07, Final residual = 4.93138e-09, No Iterations 1
smoothSolver:  Solving for Uy, Initial residual = 1.92975e-06, Final residual = 1.43451e-07, No Iterations 1
smoothSolver:  Solving for Uz, Initial residual = 5.29327e-06, Final residual = 3.64149e-07, No Iterations 1
GAMG:  Solving for p, Initial residual = 5.47945e-06, Final residual = 8.56988e-07, No Iterations 2
GAMG:  Solving for p, Initial residual = 1.58377e-06, Final residual = 4.56476e-07, No Iterations 1
GAMG:  Solving for p, Initial residual = 6.76988e-07, Final residual = 6.76988e-07, No Iterations 0
time step continuity errors : sum local = 1.1401e-09, global = -2.08965e-12, cumulative = 5.63973e-05
smoothSolver:  Solving for epsilon, Initial residual = 0.0515357, Final residual = 0.000378639, No Iterations 1
smoothSolver:  Solving for k, Initial residual = 8.59241e-07, Final residual = 9.44473e-08, No Iterations 1
ExecutionTime = 486.415 s  ClockTime = 492 s

Time = 990s

smoothSolver:  Solving for Ux, Initial residual = 1.03307e-07, Final residual = 4.93109e-09, No Iterations 1
smoothSolver:  Solving for Uy, Initial residual = 1.90082e-06, Final residual = 1.39496e-07, No Iterations 1
smoothSolver:  Solving for Uz, Initial residual = 5.33048e-06, Final residual = 3.78033e-07, No Iterations 1
GAMG:  Solving for p, Initial residual = 5.69782e-06, Final residual = 8.53639e-07, No Iterations 2
GAMG:  Solving for p, Initial residual = 1.52423e-06, Final residual = 4.42818e-07, No Iterations 1
GAMG:  Solving for p, Initial residual = 6.56479e-07, Final residual = 6.56479e-07, No Iterations 0
time step continuity errors : sum local = 1.10559e-09, global = -8.68759e-12, cumulative = 5.63973e-05
smoothSolver:  Solving for epsilon, Initial residual = 0.051529, Final residual = 0.00037859, No Iterations 1
smoothSolver:  Solving for k, Initial residual = 9.00621e-07, Final residual = 9.54665e-08, No Iterations 1
ExecutionTime = 486.8 s  ClockTime = 492 s

Time = 991s

smoothSolver:  Solving for Ux, Initial residual = 1.04408e-07, Final residual = 4.88485e-09, No Iterations 1
smoothSolver:  Solving for Uy, Initial residual = 1.90591e-06, Final residual = 1.44378e-07, No Iterations 1
smoothSolver:  Solving for Uz, Initial residual = 5.30519e-06, Final residual = 3.87495e-07, No Iterations 1
GAMG:  Solving for p, Initial residual = 5.66091e-06, Final residual = 8.0536e-07, No Iterations 2
GAMG:  Solving for p, Initial residual = 1.44699e-06, Final residual = 4.11852e-07, No Iterations 1
GAMG:  Solving for p, Initial residual = 6.09901e-07, Final residual = 6.09901e-07, No Iterations 0
time step continuity errors : sum local = 1.02712e-09, global = -8.28374e-12, cumulative = 5.63973e-05
smoothSolver:  Solving for epsilon, Initial residual = 0.0515357, Final residual = 0.000378639, No Iterations 1
smoothSolver:  Solving for k, Initial residual = 8.59256e-07, Final residual = 9.44053e-08, No Iterations 1
ExecutionTime = 487.185 s  ClockTime = 492 s

Time = 992s

smoothSolver:  Solving for Ux, Initial residual = 1.04255e-07, Final residual = 4.92007e-09, No Iterations 1
smoothSolver:  Solving for Uy, Initial residual = 1.87972e-06, Final residual = 1.42105e-07, No Iterations 1
smoothSolver:  Solving for Uz, Initial residual = 5.27e-06, Final residual = 3.70941e-07, No Iterations 1
GAMG:  Solving for p, Initial residual = 5.37972e-06, Final residual = 7.12294e-07, No Iterations 2
GAMG:  Solving for p, Initial residual = 1.40406e-06, Final residual = 3.3125e-07, No Iterations 1
GAMG:  Solving for p, Initial residual = 5.35637e-07, Final residual = 5.35637e-07, No Iterations 0
time step continuity errors : sum local = 9.0208e-10, global = -1.23887e-11, cumulative = 5.63973e-05
smoothSolver:  Solving for epsilon, Initial residual = 0.051529, Final residual = 0.00037859, No Iterations 1
smoothSolver:  Solving for k, Initial residual = 9.00412e-07, Final residual = 9.54582e-08, No Iterations 1
ExecutionTime = 487.57 s  ClockTime = 493 s

Time = 993s

smoothSolver:  Solving for Ux, Initial residual = 1.07719e-07, Final residual = 4.9628e-09, No Iterations 1
smoothSolver:  Solving for Uy, Initial residual = 1.86972e-06, Final residual = 1.39683e-07, No Iterations 1
smoothSolver:  Solving for Uz, Initial residual = 5.18154e-06, Final residual = 3.62296e-07, No Iterations 1
GAMG:  Solving for p, Initial residual = 5.17974e-06, Final residual = 7.72591e-07, No Iterations 2
GAMG:  Solving for p, Initial residual = 1.48104e-06, Final residual = 3.49581e-07, No Iterations 1
GAMG:  Solving for p, Initial residual = 5.68523e-07, Final residual = 5.68523e-07, No Iterations 0
time step continuity errors : sum local = 9.57436e-10, global = -3.90416e-12, cumulative = 5.63973e-05
smoothSolver:  Solving for epsilon, Initial residual = 0.0515357, Final residual = 0.000378638, No Iterations 1
smoothSolver:  Solving for k, Initial residual = 8.58847e-07, Final residual = 9.44131e-08, No Iterations 1
ExecutionTime = 487.955 s  ClockTime = 493 s

Time = 994s

smoothSolver:  Solving for Ux, Initial residual = 1.05064e-07, Final residual = 4.92011e-09, No Iterations 1
smoothSolver:  Solving for Uy, Initial residual = 1.88837e-06, Final residual = 1.37863e-07, No Iterations 1
smoothSolver:  Solving for Uz, Initial residual = 5.2781e-06, Final residual = 3.72338e-07, No Iterations 1
GAMG:  Solving for p, Initial residual = 5.15095e-06, Final residual = 7.88174e-07, No Iterations 2
GAMG:  Solving for p, Initial residual = 1.43381e-06, Final residual = 3.89168e-07, No Iterations 1
GAMG:  Solving for p, Initial residual = 5.9004e-07, Final residual = 5.9004e-07, No Iterations 0
time step continuity errors : sum local = 9.93702e-10, global = -4.21043e-13, cumulative = 5.63973e-05
smoothSolver:  Solving for epsilon, Initial residual = 0.051529, Final residual = 0.00037859, No Iterations 1
smoothSolver:  Solving for k, Initial residual = 9.0011e-07, Final residual = 9.54687e-08, No Iterations 1
ExecutionTime = 488.342 s  ClockTime = 494 s

Time = 995s

smoothSolver:  Solving for Ux, Initial residual = 1.03784e-07, Final residual = 4.93906e-09, No Iterations 1
smoothSolver:  Solving for Uy, Initial residual = 1.88667e-06, Final residual = 1.35533e-07, No Iterations 1
smoothSolver:  Solving for Uz, Initial residual = 5.35563e-06, Final residual = 3.7053e-07, No Iterations 1
GAMG:  Solving for p, Initial residual = 5.17462e-06, Final residual = 8.48626e-07, No Iterations 2
GAMG:  Solving for p, Initial residual = 1.48659e-06, Final residual = 4.61132e-07, No Iterations 1
GAMG:  Solving for p, Initial residual = 6.51269e-07, Final residual = 6.51269e-07, No Iterations 0
time step continuity errors : sum local = 1.09679e-09, global = 1.12779e-11, cumulative = 5.63973e-05
smoothSolver:  Solving for epsilon, Initial residual = 0.0515357, Final residual = 0.000378639, No Iterations 1
smoothSolver:  Solving for k, Initial residual = 8.58803e-07, Final residual = 9.43785e-08, No Iterations 1
ExecutionTime = 488.728 s  ClockTime = 494 s

Time = 996s

smoothSolver:  Solving for Ux, Initial residual = 1.04315e-07, Final residual = 4.82785e-09, No Iterations 1
smoothSolver:  Solving for Uy, Initial residual = 1.8913e-06, Final residual = 1.39054e-07, No Iterations 1
smoothSolver:  Solving for Uz, Initial residual = 5.27213e-06, Final residual = 3.696e-07, No Iterations 1
GAMG:  Solving for p, Initial residual = 5.38398e-06, Final residual = 9.47485e-07, No Iterations 2
GAMG:  Solving for p, Initial residual = 1.62957e-06, Final residual = 5.52365e-07, No Iterations 1
GAMG:  Solving for p, Initial residual = 7.49883e-07, Final residual = 7.49883e-07, No Iterations 0
time step continuity errors : sum local = 1.2629e-09, global = 1.25851e-11, cumulative = 5.63973e-05
smoothSolver:  Solving for epsilon, Initial residual = 0.051529, Final residual = 0.00037859, No Iterations 1
smoothSolver:  Solving for k, Initial residual = 9.00416e-07, Final residual = 9.54797e-08, No Iterations 1
bounding k, min: -0.0232192 max: 8.45362 average: 1.34785
ExecutionTime = 489.12 s  ClockTime = 494 s

Time = 997s

smoothSolver:  Solving for Ux, Initial residual = 1.0594e-07, Final residual = 5.04666e-09, No Iterations 1
smoothSolver:  Solving for Uy, Initial residual = 1.9479e-06, Final residual = 1.50037e-07, No Iterations 1
smoothSolver:  Solving for Uz, Initial residual = 5.52681e-06, Final residual = 3.77871e-07, No Iterations 1
GAMG:  Solving for p, Initial residual = 7.78138e-06, Final residual = 8.16266e-07, No Iterations 2
GAMG:  Solving for p, Initial residual = 1.63986e-06, Final residual = 4.30998e-07, No Iterations 1
GAMG:  Solving for p, Initial residual = 6.52862e-07, Final residual = 6.52862e-07, No Iterations 0
time step continuity errors : sum local = 1.09947e-09, global = 1.27385e-11, cumulative = 5.63973e-05
smoothSolver:  Solving for epsilon, Initial residual = 0.0515357, Final residual = 0.000378639, No Iterations 1
smoothSolver:  Solving for k, Initial residual = 8.61036e-07, Final residual = 9.44287e-08, No Iterations 1
ExecutionTime = 489.505 s  ClockTime = 495 s

Time = 998s

smoothSolver:  Solving for Ux, Initial residual = 1.07591e-07, Final residual = 4.97496e-09, No Iterations 1
smoothSolver:  Solving for Uy, Initial residual = 1.93598e-06, Final residual = 1.42755e-07, No Iterations 1
smoothSolver:  Solving for Uz, Initial residual = 5.3456e-06, Final residual = 3.67067e-07, No Iterations 1
GAMG:  Solving for p, Initial residual = 5.61078e-06, Final residual = 8.87013e-07, No Iterations 2
GAMG:  Solving for p, Initial residual = 1.66703e-06, Final residual = 4.85756e-07, No Iterations 1
GAMG:  Solving for p, Initial residual = 7.18336e-07, Final residual = 7.18336e-07, No Iterations 0
time step continuity errors : sum local = 1.20977e-09, global = 3.69046e-12, cumulative = 5.63973e-05
smoothSolver:  Solving for epsilon, Initial residual = 0.051529, Final residual = 0.00037859, No Iterations 1
smoothSolver:  Solving for k, Initial residual = 9.00904e-07, Final residual = 9.55323e-08, No Iterations 1
ExecutionTime = 489.891 s  ClockTime = 495 s

Time = 999s

smoothSolver:  Solving for Ux, Initial residual = 1.05402e-07, Final residual = 4.95627e-09, No Iterations 1
smoothSolver:  Solving for Uy, Initial residual = 1.88739e-06, Final residual = 1.39208e-07, No Iterations 1
smoothSolver:  Solving for Uz, Initial residual = 5.28415e-06, Final residual = 3.8661e-07, No Iterations 1
GAMG:  Solving for p, Initial residual = 6.10019e-06, Final residual = 9.01494e-07, No Iterations 2
GAMG:  Solving for p, Initial residual = 1.62392e-06, Final residual = 4.79399e-07, No Iterations 1
GAMG:  Solving for p, Initial residual = 7.04764e-07, Final residual = 7.04764e-07, No Iterations 0
time step continuity errors : sum local = 1.18687e-09, global = -8.09998e-13, cumulative = 5.63973e-05
smoothSolver:  Solving for epsilon, Initial residual = 0.0515357, Final residual = 0.000378639, No Iterations 1
smoothSolver:  Solving for k, Initial residual = 8.59548e-07, Final residual = 9.44131e-08, No Iterations 1
ExecutionTime = 490.278 s  ClockTime = 496 s

Time = 1000s

smoothSolver:  Solving for Ux, Initial residual = 1.01749e-07, Final residual = 4.95874e-09, No Iterations 1
smoothSolver:  Solving for Uy, Initial residual = 1.9051e-06, Final residual = 1.44912e-07, No Iterations 1
smoothSolver:  Solving for Uz, Initial residual = 5.38972e-06, Final residual = 3.93562e-07, No Iterations 1
GAMG:  Solving for p, Initial residual = 5.98702e-06, Final residual = 8.45597e-07, No Iterations 2
GAMG:  Solving for p, Initial residual = 1.51323e-06, Final residual = 4.42739e-07, No Iterations 1
GAMG:  Solving for p, Initial residual = 6.49073e-07, Final residual = 6.49073e-07, No Iterations 0
time step continuity errors : sum local = 1.09312e-09, global = -8.83645e-12, cumulative = 5.63973e-05
smoothSolver:  Solving for epsilon, Initial residual = 0.051529, Final residual = 0.000378589, No Iterations 1
smoothSolver:  Solving for k, Initial residual = 9.01371e-07, Final residual = 9.55007e-08, No Iterations 1
ExecutionTime = 491.355 s  ClockTime = 497 s

End

