/*---------------------------------------------------------------------------*\
  =========                 |
  \\      /  F ield         | OpenFOAM: The Open Source CFD Toolbox
   \\    /   O peration     | Website:  https://openfoam.org
    \\  /    A nd           | Version:  13
     \\/     M anipulation  |
\*---------------------------------------------------------------------------*/
Build  : 13-441953dfbb42
Exec   : snappyHexMesh
Date   : Jun 19 2026
Time   : 13:13:29
Host   : "openfoam"
PID    : 1819
I/O    : uncollated
Case   : /home/ubuntu/OpenFOAM/ubuntu-v13/run/sRiverNoTerrain/rans/winter
nProcs : 1
sigFpe : Floating point exception trapping - not supported on this platform
fileModificationChecking : Monitoring run-time modified files using timeStampMaster (fileModificationSkew 10)
allowSystemOperations : Allowing user-supplied system call operations

// * * * * * * * * * * * * * * * * * * * * * * * * * * * * * * * * * * * * * //
Create time

Create mesh for time = 0

Read mesh in = 0.137804 s
Reading "snappyHexMeshDict"


Overall mesh bounding box  : (-1600.36 -1600.36 0) (4000.9 1600.36 160.5)
Relative tolerance         : 1e-06
Absolute matching distance : 0.00645326

Reading refinement surfaces...
Read refinement surfaces in = 0.011971 s

Reading refinement regions...
Refinement level 2 for all cells inside refinementBox
Refinement level 3 for all cells inside pedestrianZone
Read refinement regions in = 2.3e-05 s

Reading features...
Read edgeMesh buildings.eMesh
    points      : 4460
    edges       : 6369
    boundingBox : (-385.976 -398.17 0) (390.82 398.274 32.1)

Refinement level according to distance to "buildings.eMesh" (4460 points, 6369 edges).
    level 1 for all cells within 0 metre.
Read features in = 0.009655 s


Determining initial surface intersections
-----------------------------------------

Edge intersection testing:
    Number of edges             : 123800
    Number of edges to retest   : 123800
    Number of intersected edges : 131
Calculated surface intersections in = 0.060733 s

Initial mesh : cells:40000  faces:123800  points:43911
Cells per refinement level:
    0	40000

Adding patches for surface regions
----------------------------------

Patch Type                Region                        
----- ----                ------                        
buildings:

5     wall                buildings                     

Added patches in = 0.001689 s

Selecting distributor none
Cell selection insidePoints: 1((0.1 0.1 96.3))

Refinement phase
----------------

Found point (0.1 0.1 96.3) in cell 25014 on processor 0

Feature refinement iteration 0
------------------------------

Marked for refinement due to explicit features             : 111 cells.
Determined cells to refine in = 0.21939 s
Selected for feature refinement : 111 cells (out of 40000)
Edge intersection testing:
    Number of edges             : 126461
    Number of edges to retest   : 3485
    Number of intersected edges : 729
Refined mesh in = 0.050619 s
After refinement feature refinement iteration 0 : cells:40777  faces:126461  points:45042
Cells per refinement level:
    0	39889
    1	888

Feature refinement iteration 1
------------------------------

Marked for refinement due to explicit features             : 0 cells.
Determined cells to refine in = 0.224272 s
Selected for feature refinement : 0 cells (out of 40777)
Stopping refining since too few cells selected.


Surface refinement iteration 0
------------------------------

Marked for refinement due to surface intersection          : 567 cells.
Determined cells to refine in = 0.001425 s
Selected for refinement : 610 cells (out of 40777)
Edge intersection testing:
    Number of edges             : 140732
    Number of edges to retest   : 17958
    Number of intersected edges : 3666
Refined mesh in = 0.063399 s
After refinement surface refinement iteration 0 : cells:45047  faces:140732  points:50822
Cells per refinement level:
    0	39824
    1	863
    2	4360

Surface refinement iteration 1
------------------------------

Marked for refinement due to surface intersection          : 3178 cells.
Determined cells to refine in = 0.003625 s
Selected for refinement : 3388 cells (out of 45047)
Edge intersection testing:
    Number of edges             : 217727
    Number of edges to retest   : 94537
    Number of intersected edges : 17221
Refined mesh in = 0.129247 s
After refinement surface refinement iteration 1 : cells:68763  faces:217727  points:80521
Cells per refinement level:
    0	39781
    1	933
    2	3481
    3	24568

Surface refinement iteration 2
------------------------------

Marked for refinement due to surface intersection          : 598 cells.
Determined cells to refine in = 0.009789 s
Selected for refinement : 688 cells (out of 68763)
Edge intersection testing:
    Number of edges             : 232262
    Number of edges to retest   : 44412
    Number of intersected edges : 17542
Refined mesh in = 0.115636 s
After refinement surface refinement iteration 2 : cells:73579  faces:232262  points:85395
Cells per refinement level:
    0	39768
    1	957
    2	3526
    3	29328

Surface refinement iteration 3
------------------------------

Marked for refinement due to surface intersection          : 57 cells.
Determined cells to refine in = 0.010127 s
Selected for refinement : 71 cells (out of 73579)
Edge intersection testing:
    Number of edges             : 233777
    Number of edges to retest   : 6071
    Number of intersected edges : 17545
Refined mesh in = 0.094855 s
After refinement surface refinement iteration 3 : cells:74076  faces:233777  points:85913
Cells per refinement level:
    0	39766
    1	961
    2	3565
    3	29784

Surface refinement iteration 4
------------------------------

Marked for refinement due to surface intersection          : 2 cells.
Determined cells to refine in = 0.009355 s
Selected for refinement : 4 cells (out of 74076)
Stopping refining since too few cells selected.


Removing mesh beyond surface intersections
------------------------------------------

Selecting all cells in regions containing any of the points in 1((0.1 0.1 96.3))
Selected: 73248 cells.
Edge intersection testing:
    Number of edges             : 232098
    Number of edges to retest   : 1688
    Number of intersected edges : 17545

Shell refinement iteration 0
----------------------------

Marked for refinement due to distance to explicit features : 0 cells.
Marked for refinement due to refinement shells             : 3420 cells.
Determined cells to refine in = 0.679454 s
Selected for internal refinement : 3420 cells (out of 73248)
Edge intersection testing:
    Number of edges             : 306393
    Number of edges to retest   : 105296
    Number of intersected edges : 17561
Refined mesh in = 0.135534 s
After refinement shell refinement iteration 0 : cells:97188  faces:306393  points:112077
Cells per refinement level:
    0	37552
    1	17712
    2	11002
    3	30922

Shell refinement iteration 1
----------------------------

Marked for refinement due to distance to explicit features : 0 cells.
Marked for refinement due to refinement shells             : 18072 cells.
Determined cells to refine in = 0.011116 s
Selected for internal refinement : 18972 cells (out of 97188)
Edge intersection testing:
    Number of edges             : 712230
    Number of edges to retest   : 484580
    Number of intersected edges : 17561
Refined mesh in = 0.343863 s
After refinement shell refinement iteration 1 : cells:229992  faces:712230  points:252359
Cells per refinement level:
    0	36652
    1	7200
    2	152338
    3	33802

Shell refinement iteration 2
----------------------------

Marked for refinement due to distance to explicit features : 0 cells.
Marked for refinement due to refinement shells             : 5728 cells.
Determined cells to refine in = 0.026032 s
Selected for internal refinement : 5834 cells (out of 229992)
Edge intersection testing:
    Number of edges             : 850830
    Number of edges to retest   : 192692
    Number of intersected edges : 17561
Refined mesh in = 0.363983 s
After refinement shell refinement iteration 2 : cells:270830  faces:850830  points:309361
Cells per refinement level:
    0	36614
    1	6860
    2	152338
    3	75018

Shell refinement iteration 3
----------------------------

Marked for refinement due to distance to explicit features : 0 cells.
Marked for refinement due to refinement shells             : 96 cells.
Determined cells to refine in = 0.022717 s
Selected for internal refinement : 98 cells (out of 270830)
Edge intersection testing:
    Number of edges             : 853185
    Number of edges to retest   : 5334
    Number of intersected edges : 17561
Refined mesh in = 0.337836 s
After refinement shell refinement iteration 3 : cells:271516  faces:853185  points:310345
Cells per refinement level:
    0	36614
    1	6858
    2	152258
    3	75786

Shell refinement iteration 4
----------------------------

Marked for refinement due to distance to explicit features : 0 cells.
Marked for refinement due to refinement shells             : 0 cells.
Determined cells to refine in = 0.025181 s
Selected for internal refinement : 0 cells (out of 271516)
Stopping refining since too few cells selected.


Dangling coarse cells refinement iteration 0
--------------------------------------------

Determined cells to refine in = 0.00663 s
Selected for refinement : 18 cells (out of 271516)
Edge intersection testing:
    Number of edges             : 853455
    Number of edges to retest   : 2271
    Number of intersected edges : 17565
Refined mesh in = 0.332918 s
After refinement coarse cell refinement iteration 0 : cells:271642  faces:853455  points:310381
Cells per refinement level:
    0	36614
    1	6858
    2	152240
    3	75930

Dangling coarse cells refinement iteration 1
--------------------------------------------

Determined cells to refine in = 0.006457 s
Selected for refinement : 5 cells (out of 271642)
Stopping refining since too few cells selected.


Dangling coarse cells refinement iteration 0
--------------------------------------------

Determined cells to refine in = 0.004233 s
Selected for refinement : 0 cells (out of 271642)
Stopping refining since too few cells selected.


Splitting mesh at surface intersections
---------------------------------------

Introducing baffles for 17565 faces that are intersected by the surface.

Edge intersection testing:
    Number of edges             : 869989
    Number of edges to retest   : 84562
    Number of intersected edges : 34098
Created baffles in = 0.326211 s


After introducing baffles : cells:271642  faces:869989  points:310381
Cells per refinement level:
    0	36614
    1	6858
    2	152240
    3	75930

Introducing baffles to block off problem cells
----------------------------------------------

markFacesOnProblemCells : marked 14930 additional internal faces to be converted into baffles.
Analyzed problem cells in = 0.23129 s


Introducing baffles to delete problem cells.

Edge intersection testing:
    Number of edges             : 884919
    Number of edges to retest   : 59613
    Number of intersected edges : 34098
Created baffles in = 0.316424 s


After introducing baffles : cells:271642  faces:884919  points:310381
Cells per refinement level:
    0	36614
    1	6858
    2	152240
    3	75930

Remove unreachable sections of mesh
-----------------------------------

Keeping all cells in regions containing any point in 1((0.1 0.1 96.3))
Selected for keeping : 260513 cells.
Edge intersection testing:
    Number of edges             : 824299
    Number of edges to retest   : 0
    Number of intersected edges : 10393
Split mesh in = 2.52127 s


After subsetting : cells:260513  faces:824299  points:303241
Cells per refinement level:
    0	36614
    1	6858
    2	152230
    3	64811

Handling cells with snap problems
---------------------------------

Introducing baffles for 10393 faces that are intersected by the surface.

Edge intersection testing:
    Number of edges             : 824299
    Number of edges to retest   : 39065
    Number of intersected edges : 10393
Created baffles in = 0.240703 s


After introducing baffles : cells:260513  faces:824299  points:303241
Cells per refinement level:
    0	36614
    1	6858
    2	152230
    3	64811

Introducing baffles to block off problem cells
----------------------------------------------

markFacesOnProblemCells : marked 10 additional internal faces to be converted into baffles.
Analyzed problem cells in = 0.217529 s


Introducing baffles to delete problem cells.

Edge intersection testing:
    Number of edges             : 824309
    Number of edges to retest   : 56
    Number of intersected edges : 10393
Created baffles in = 0.249567 s


After introducing baffles : cells:260513  faces:824309  points:303241
Cells per refinement level:
    0	36614
    1	6858
    2	152230
    3	64811

Remove unreachable sections of mesh
-----------------------------------

Keeping all cells in regions containing any point in 1((0.1 0.1 96.3))
Selected for keeping : 260509 cells.
Edge intersection testing:
    Number of edges             : 824285
    Number of edges to retest   : 0
    Number of intersected edges : 10387
Split mesh in = 2.43396 s


After subsetting : cells:260509  faces:824285  points:303237
Cells per refinement level:
    0	36614
    1	6858
    2	152230
    3	64807

Merge free-standing baffles
---------------------------

freeStandingBaffles : detected 220 free-standing baffles out of 220

freeStandingBaffles : detected 0 planar (within 30 degrees) free-standing baffles out of 220

Detected free-standing baffles : 0
Merged free-standing baffles in = 0.063561 s


dupNonManifoldPoints : Found : 259 non-manifold points (out of 303237)
Edge intersection testing:
    Number of edges             : 824285
    Number of edges to retest   : 0
    Number of intersected edges : 10387
Detected unsplittable baffles : 7
Edge intersection testing:
    Number of edges             : 824278
    Number of edges to retest   : 7
    Number of intersected edges : 10380
Merged free-standing baffles in = 2.75404 s.

Merge refined boundary faces
----------------------------

Merging 2 sets of faces.

Edge intersection testing:
    Number of edges             : 824276
    Number of edges to retest   : 28
    Number of intersected edges : 10378

Undo iteration 0
----------------
Checking faces in error :
    non-orthogonality > 65  degrees                        : 35082
    faces with concavity > 80  degrees                     : 0
    faces with skewness > 4   (internal) or 20  (boundary) : 0
    faces with interpolation weights (0..1)  < 0.05        : 0
    faces with volume ratio of neighbour cells < 0.01      : 0
    faces with face twist < 0.02                           : 0
    faces on cells with determinant < 0.001                : 0
Masters that need to be restored:2
Edge intersection testing:
    Number of edges             : 824278
    Number of edges to retest   : 30
    Number of intersected edges : 10380


Undo iteration 1
----------------
Checking faces in error :
    non-orthogonality > 65  degrees                        : 35082
    faces with concavity > 80  degrees                     : 0
    faces with skewness > 4   (internal) or 20  (boundary) : 0
    faces with interpolation weights (0..1)  < 0.05        : 0
    faces with volume ratio of neighbour cells < 0.01      : 0
    faces with face twist < 0.02                           : 0
    faces on cells with determinant < 0.001                : 0
Masters that need to be restored:0

Merging all points on surface that
- are used by only two boundary faces and
- make an angle with a cosine of more than 0.707107.

No straight edges simplified and no points removed ...
Refined mesh : cells:260509  faces:824278  points:303496
Cells per refinement level:
    0	36614
    1	6858
    2	152230
    3	64807
Writing mesh to time constant
Wrote mesh in = 1.57045 s.
Mesh refined in = 14.1526 s.

Morphing phase
--------------


Snapping to features in 10 iterations ...
Constructing mesh displacer ...
Using mesh parameters 
{
    maxNonOrtho     65;
    maxBoundarySkewness 20;
    maxInternalSkewness 4;
    maxConcave      80;
    minVol          -1e+30;
    minTetQuality   -1e+30;
    minTwist        0.02;
    minDeterminant  0.001;
    minFaceWeight   0.05;
    minVolRatio     0.01;
    nSmoothScale    4;
    errorReduction  0.75;
    relaxed
    {
        maxNonOrtho     75;
    }
}


Checking initial mesh ...
Checking faces in error :
    non-orthogonality > 65  degrees                        : 35082
    faces with concavity > 80  degrees                     : 0
    faces with skewness > 4   (internal) or 20  (boundary) : 0
    faces with interpolation weights (0..1)  < 0.05        : 0
    faces with volume ratio of neighbour cells < 0.01      : 0
    faces with face twist < 0.02                           : 0
    faces on cells with determinant < 0.001                : 0
Detected 35082 illegal faces (concave, zero area or negative cell pyramid volume)
Checked initial mesh in = 0.113126 s


Smoothing patch points ...
Smoothing iteration 0
Found 518 non-manifold point(s).

Scaling iteration 0
Moving mesh using displacement scaling : min:1  max:1
Checking faces in error :
    non-orthogonality > 65  degrees                        : 35225
    faces with concavity > 80  degrees                     : 2
    faces with skewness > 4   (internal) or 20  (boundary) : 0
    faces with interpolation weights (0..1)  < 0.05        : 0
    faces with volume ratio of neighbour cells < 0.01      : 0
    faces with face twist < 0.02                           : 0
    faces on cells with determinant < 0.001                : 0

Scaling iteration 1
Moving mesh using displacement scaling : min:0.75  max:1
Checking faces in error :
    non-orthogonality > 65  degrees                        : 35083
    faces with concavity > 80  degrees                     : 5
    faces with skewness > 4   (internal) or 20  (boundary) : 0
    faces with interpolation weights (0..1)  < 0.05        : 0
    faces with volume ratio of neighbour cells < 0.01      : 0
    faces with face twist < 0.02                           : 0
    faces on cells with determinant < 0.001                : 0

Scaling iteration 2
Moving mesh using displacement scaling : min:0.5625  max:1
Checking faces in error :
    non-orthogonality > 65  degrees                        : 35082
    faces with concavity > 80  degrees                     : 3
    faces with skewness > 4   (internal) or 20  (boundary) : 0
    faces with interpolation weights (0..1)  < 0.05        : 0
    faces with volume ratio of neighbour cells < 0.01      : 0
    faces with face twist < 0.02                           : 0
    faces on cells with determinant < 0.001                : 0

Scaling iteration 3
Moving mesh using displacement scaling : min:0.421875  max:1
Checking faces in error :
    non-orthogonality > 65  degrees                        : 35082
    faces with concavity > 80  degrees                     : 7
    faces with skewness > 4   (internal) or 20  (boundary) : 0
    faces with interpolation weights (0..1)  < 0.05        : 0
    faces with volume ratio of neighbour cells < 0.01      : 0
    faces with face twist < 0.02                           : 0
    faces on cells with determinant < 0.001                : 0

Scaling iteration 4
Moving mesh using displacement scaling : min:0.316406  max:1
Checking faces in error :
    non-orthogonality > 65  degrees                        : 35082
    faces with concavity > 80  degrees                     : 1
    faces with skewness > 4   (internal) or 20  (boundary) : 0
    faces with interpolation weights (0..1)  < 0.05        : 0
    faces with volume ratio of neighbour cells < 0.01      : 0
    faces with face twist < 0.02                           : 0
    faces on cells with determinant < 0.001                : 0

Scaling iteration 5
Displacement scaling for error reduction set to 0.
Moving mesh using displacement scaling : min:0.237305  max:1
Checking faces in error :
    non-orthogonality > 65  degrees                        : 35082
    faces with concavity > 80  degrees                     : 2
    faces with skewness > 4   (internal) or 20  (boundary) : 0
    faces with interpolation weights (0..1)  < 0.05        : 0
    faces with volume ratio of neighbour cells < 0.01      : 0
    faces with face twist < 0.02                           : 0
    faces on cells with determinant < 0.001                : 0

Scaling iteration 6
Moving mesh using displacement scaling : min:0  max:1
Checking faces in error :
    non-orthogonality > 65  degrees                        : 35082
    faces with concavity > 80  degrees                     : 9
    faces with skewness > 4   (internal) or 20  (boundary) : 0
    faces with interpolation weights (0..1)  < 0.05        : 0
    faces with volume ratio of neighbour cells < 0.01      : 0
    faces with face twist < 0.02                           : 0
    faces on cells with determinant < 0.001                : 0

Scaling iteration 7
Moving mesh using displacement scaling : min:0  max:1
Checking faces in error :
    non-orthogonality > 65  degrees                        : 35082
    faces with concavity > 80  degrees                     : 5
    faces with skewness > 4   (internal) or 20  (boundary) : 0
    faces with interpolation weights (0..1)  < 0.05        : 0
    faces with volume ratio of neighbour cells < 0.01      : 0
    faces with face twist < 0.02                           : 0
    faces on cells with determinant < 0.001                : 0

Scaling iteration 8
Moving mesh using displacement scaling : min:0  max:1
Checking faces in error :
    non-orthogonality > 65  degrees                        : 35082
    faces with concavity > 80  degrees                     : 2
    faces with skewness > 4   (internal) or 20  (boundary) : 0
    faces with interpolation weights (0..1)  < 0.05        : 0
    faces with volume ratio of neighbour cells < 0.01      : 0
    faces with face twist < 0.02                           : 0
    faces on cells with determinant < 0.001                : 0

Scaling iteration 9
Moving mesh using displacement scaling : min:0  max:1
Checking faces in error :
    non-orthogonality > 65  degrees                        : 35082
    faces with concavity > 80  degrees                     : 1
    faces with skewness > 4   (internal) or 20  (boundary) : 0
    faces with interpolation weights (0..1)  < 0.05        : 0
    faces with volume ratio of neighbour cells < 0.01      : 0
    faces with face twist < 0.02                           : 0
    faces on cells with determinant < 0.001                : 0

Smoothing iteration 1
Found 14 non-manifold point(s).

Scaling iteration 0
Moving mesh using displacement scaling : min:1  max:1
Checking faces in error :
    non-orthogonality > 65  degrees                        : 35302
    faces with concavity > 80  degrees                     : 2
    faces with skewness > 4   (internal) or 20  (boundary) : 0
    faces with interpolation weights (0..1)  < 0.05        : 0
    faces with volume ratio of neighbour cells < 0.01      : 0
    faces with face twist < 0.02                           : 0
    faces on cells with determinant < 0.001                : 0

Scaling iteration 1
Moving mesh using displacement scaling : min:0.75  max:1
Checking faces in error :
    non-orthogonality > 65  degrees                        : 35088
    faces with concavity > 80  degrees                     : 2
    faces with skewness > 4   (internal) or 20  (boundary) : 0
    faces with interpolation weights (0..1)  < 0.05        : 0
    faces with volume ratio of neighbour cells < 0.01      : 0
    faces with face twist < 0.02                           : 0
    faces on cells with determinant < 0.001                : 0

Scaling iteration 2
Moving mesh using displacement scaling : min:0.5625  max:1
Checking faces in error :
    non-orthogonality > 65  degrees                        : 35085
    faces with concavity > 80  degrees                     : 0
    faces with skewness > 4   (internal) or 20  (boundary) : 0
    faces with interpolation weights (0..1)  < 0.05        : 0
    faces with volume ratio of neighbour cells < 0.01      : 0
    faces with face twist < 0.02                           : 0
    faces on cells with determinant < 0.001                : 0

Scaling iteration 3
Moving mesh using displacement scaling : min:0.421875  max:1
Checking faces in error :
    non-orthogonality > 65  degrees                        : 35085
    faces with concavity > 80  degrees                     : 3
    faces with skewness > 4   (internal) or 20  (boundary) : 0
    faces with interpolation weights (0..1)  < 0.05        : 0
    faces with volume ratio of neighbour cells < 0.01      : 0
    faces with face twist < 0.02                           : 0
    faces on cells with determinant < 0.001                : 0

Scaling iteration 4
Moving mesh using displacement scaling : min:0.316406  max:1
Checking faces in error :
    non-orthogonality > 65  degrees                        : 35083
    faces with concavity > 80  degrees                     : 0
    faces with skewness > 4   (internal) or 20  (boundary) : 0
    faces with interpolation weights (0..1)  < 0.05        : 0
    faces with volume ratio of neighbour cells < 0.01      : 0
    faces with face twist < 0.02                           : 0
    faces on cells with determinant < 0.001                : 0

Scaling iteration 5
Displacement scaling for error reduction set to 0.
Moving mesh using displacement scaling : min:0.237305  max:1
Checking faces in error :
    non-orthogonality > 65  degrees                        : 35083
    faces with concavity > 80  degrees                     : 0
    faces with skewness > 4   (internal) or 20  (boundary) : 0
    faces with interpolation weights (0..1)  < 0.05        : 0
    faces with volume ratio of neighbour cells < 0.01      : 0
    faces with face twist < 0.02                           : 0
    faces on cells with determinant < 0.001                : 0

Scaling iteration 6
Moving mesh using displacement scaling : min:0  max:1
Checking faces in error :
    non-orthogonality > 65  degrees                        : 35082
    faces with concavity > 80  degrees                     : 3
    faces with skewness > 4   (internal) or 20  (boundary) : 0
    faces with interpolation weights (0..1)  < 0.05        : 0
    faces with volume ratio of neighbour cells < 0.01      : 0
    faces with face twist < 0.02                           : 0
    faces on cells with determinant < 0.001                : 0

Scaling iteration 7
Moving mesh using displacement scaling : min:0  max:1
Checking faces in error :
    non-orthogonality > 65  degrees                        : 35082
    faces with concavity > 80  degrees                     : 2
    faces with skewness > 4   (internal) or 20  (boundary) : 0
    faces with interpolation weights (0..1)  < 0.05        : 0
    faces with volume ratio of neighbour cells < 0.01      : 0
    faces with face twist < 0.02                           : 0
    faces on cells with determinant < 0.001                : 0

Scaling iteration 8
Moving mesh using displacement scaling : min:0  max:1
Checking faces in error :
    non-orthogonality > 65  degrees                        : 35082
    faces with concavity > 80  degrees                     : 1
    faces with skewness > 4   (internal) or 20  (boundary) : 0
    faces with interpolation weights (0..1)  < 0.05        : 0
    faces with volume ratio of neighbour cells < 0.01      : 0
    faces with face twist < 0.02                           : 0
    faces on cells with determinant < 0.001                : 0

Scaling iteration 9
Moving mesh using displacement scaling : min:0  max:1
Checking faces in error :
    non-orthogonality > 65  degrees                        : 35082
    faces with concavity > 80  degrees                     : 1
    faces with skewness > 4   (internal) or 20  (boundary) : 0
    faces with interpolation weights (0..1)  < 0.05        : 0
    faces with volume ratio of neighbour cells < 0.01      : 0
    faces with face twist < 0.02                           : 0
    faces on cells with determinant < 0.001                : 0

Smoothing iteration 2
Found 10 non-manifold point(s).

Scaling iteration 0
Moving mesh using displacement scaling : min:1  max:1
Checking faces in error :
    non-orthogonality > 65  degrees                        : 35354
    faces with concavity > 80  degrees                     : 4
    faces with skewness > 4   (internal) or 20  (boundary) : 0
    faces with interpolation weights (0..1)  < 0.05        : 0
    faces with volume ratio of neighbour cells < 0.01      : 0
    faces with face twist < 0.02                           : 0
    faces on cells with determinant < 0.001                : 0

Scaling iteration 1
Moving mesh using displacement scaling : min:0.75  max:1
Checking faces in error :
    non-orthogonality > 65  degrees                        : 35128
    faces with concavity > 80  degrees                     : 4
    faces with skewness > 4   (internal) or 20  (boundary) : 0
    faces with interpolation weights (0..1)  < 0.05        : 0
    faces with volume ratio of neighbour cells < 0.01      : 0
    faces with face twist < 0.02                           : 0
    faces on cells with determinant < 0.001                : 0

Scaling iteration 2
Moving mesh using displacement scaling : min:0.5625  max:1
Checking faces in error :
    non-orthogonality > 65  degrees                        : 35100
    faces with concavity > 80  degrees                     : 1
    faces with skewness > 4   (internal) or 20  (boundary) : 0
    faces with interpolation weights (0..1)  < 0.05        : 0
    faces with volume ratio of neighbour cells < 0.01      : 0
    faces with face twist < 0.02                           : 0
    faces on cells with determinant < 0.001                : 0

Scaling iteration 3
Moving mesh using displacement scaling : min:0.421875  max:1
Checking faces in error :
    non-orthogonality > 65  degrees                        : 35094
    faces with concavity > 80  degrees                     : 5
    faces with skewness > 4   (internal) or 20  (boundary) : 0
    faces with interpolation weights (0..1)  < 0.05        : 0
    faces with volume ratio of neighbour cells < 0.01      : 0
    faces with face twist < 0.02                           : 0
    faces on cells with determinant < 0.001                : 0

Scaling iteration 4
Moving mesh using displacement scaling : min:0.316406  max:1
Checking faces in error :
    non-orthogonality > 65  degrees                        : 35091
    faces with concavity > 80  degrees                     : 11
    faces with skewness > 4   (internal) or 20  (boundary) : 0
    faces with interpolation weights (0..1)  < 0.05        : 0
    faces with volume ratio of neighbour cells < 0.01      : 0
    faces with face twist < 0.02                           : 0
    faces on cells with determinant < 0.001                : 0

Scaling iteration 5
Displacement scaling for error reduction set to 0.
Moving mesh using displacement scaling : min:0.237305  max:1
Checking faces in error :
    non-orthogonality > 65  degrees                        : 35086
    faces with concavity > 80  degrees                     : 8
    faces with skewness > 4   (internal) or 20  (boundary) : 0
    faces with interpolation weights (0..1)  < 0.05        : 0
    faces with volume ratio of neighbour cells < 0.01      : 0
    faces with face twist < 0.02                           : 0
    faces on cells with determinant < 0.001                : 0

Scaling iteration 6
Moving mesh using displacement scaling : min:0  max:1
Checking faces in error :
    non-orthogonality > 65  degrees                        : 35083
    faces with concavity > 80  degrees                     : 7
    faces with skewness > 4   (internal) or 20  (boundary) : 0
    faces with interpolation weights (0..1)  < 0.05        : 0
    faces with volume ratio of neighbour cells < 0.01      : 0
    faces with face twist < 0.02                           : 0
    faces on cells with determinant < 0.001                : 0

Scaling iteration 7
Moving mesh using displacement scaling : min:0  max:1
Checking faces in error :
    non-orthogonality > 65  degrees                        : 35082
    faces with concavity > 80  degrees                     : 0
    faces with skewness > 4   (internal) or 20  (boundary) : 0
    faces with interpolation weights (0..1)  < 0.05        : 0
    faces with volume ratio of neighbour cells < 0.01      : 0
    faces with face twist < 0.02                           : 0
    faces on cells with determinant < 0.001                : 0
Successfully moved mesh

Patch points smoothed in = 12.9743 s



Morph iteration 0
-----------------
Calculating patchDisplacement as distance to nearest surface point ...
Wanted displacement : average:2.41236 min:0 max:11.1057
Calculated surface displacement in = 0.029163 s


Detecting near surfaces ...
Overriding nearest with intersection of close gaps at 405 out of 12182 points.
Overriding displacement on features :
   implicit features    : true
   explicit features    : true
   multi-patch features : false

Detected 483 baffle edges out of 23826 edges.
Initially selected 6848 points out of 12182 for reverse attraction.
Selected 10920 points out of 12182 for reverse attraction.
Stringing feature edges : changed 960 points
Stringing feature edges : changed 121 points
Stringing feature edges : changed 29 points
Stringing feature edges : changed 6 points
Stringing feature edges : changed 2 points
Stringing feature edges : changed 2 points
Stringing feature edges : changed 0 points
Attraction:
     linear   : max:(13.3379 0.0362661 -1.02617) avg:(-0.0271694 0.0389823 -0.0464668)
     feature  : max:(13.5946 -20.2118 0) avg:(0.0260155 0.0166273 0.0381842)
Feature analysis : total master points:12182 attraction to :
    feature point   : 1042
    feature edge    : 3934
    nearest surface : 0
    rest            : 7206

--> FOAM Warning : Displacement (-0.00177554 0.0112166 -0.183512) at mesh point 59209 coord (-269.815 -80.9821 6.0317) points through the surrounding patch faces
Smoothing displacement ...
Iteration 0
Iteration 10
Iteration 20
Iteration 30
Iteration 40
Iteration 50
Iteration 60
Iteration 70
Iteration 80
Iteration 90
Displacement smoothed in = 0.801553 s


Moving mesh ...

Iteration 0
Moving mesh using displacement scaling : min:1  max:1
Checking faces in error :
    non-orthogonality > 65  degrees                        : 35090
    faces with concavity > 80  degrees                     : 5
    faces with skewness > 4   (internal) or 20  (boundary) : 0
    faces with interpolation weights (0..1)  < 0.05        : 0
    faces with volume ratio of neighbour cells < 0.01      : 0
    faces with face twist < 0.02                           : 0
    faces on cells with determinant < 0.001                : 0

Iteration 1
Moving mesh using displacement scaling : min:0.75  max:1
Checking faces in error :
    non-orthogonality > 65  degrees                        : 35089
    faces with concavity > 80  degrees                     : 3
    faces with skewness > 4   (internal) or 20  (boundary) : 0
    faces with interpolation weights (0..1)  < 0.05        : 0
    faces with volume ratio of neighbour cells < 0.01      : 0
    faces with face twist < 0.02                           : 0
    faces on cells with determinant < 0.001                : 0

Iteration 2
Moving mesh using displacement scaling : min:0.5625  max:1
Checking faces in error :
    non-orthogonality > 65  degrees                        : 35086
    faces with concavity > 80  degrees                     : 2
    faces with skewness > 4   (internal) or 20  (boundary) : 0
    faces with interpolation weights (0..1)  < 0.05        : 0
    faces with volume ratio of neighbour cells < 0.01      : 0
    faces with face twist < 0.02                           : 0
    faces on cells with determinant < 0.001                : 0

Iteration 3
Moving mesh using displacement scaling : min:0.421875  max:1
Checking faces in error :
    non-orthogonality > 65  degrees                        : 35085
    faces with concavity > 80  degrees                     : 3
    faces with skewness > 4   (internal) or 20  (boundary) : 0
    faces with interpolation weights (0..1)  < 0.05        : 0
    faces with volume ratio of neighbour cells < 0.01      : 0
    faces with face twist < 0.02                           : 0
    faces on cells with determinant < 0.001                : 0

Iteration 4
Moving mesh using displacement scaling : min:0.316406  max:1
Checking faces in error :
    non-orthogonality > 65  degrees                        : 35085
    faces with concavity > 80  degrees                     : 2
    faces with skewness > 4   (internal) or 20  (boundary) : 0
    faces with interpolation weights (0..1)  < 0.05        : 0
    faces with volume ratio of neighbour cells < 0.01      : 0
    faces with face twist < 0.02                           : 0
    faces on cells with determinant < 0.001                : 0

Iteration 5
Displacement scaling for error reduction set to 0.
Moving mesh using displacement scaling : min:0.237305  max:1
Checking faces in error :
    non-orthogonality > 65  degrees                        : 35085
    faces with concavity > 80  degrees                     : 1
    faces with skewness > 4   (internal) or 20  (boundary) : 0
    faces with interpolation weights (0..1)  < 0.05        : 0
    faces with volume ratio of neighbour cells < 0.01      : 0
    faces with face twist < 0.02                           : 0
    faces on cells with determinant < 0.001                : 0

Iteration 6
Moving mesh using displacement scaling : min:0  max:1
Checking faces in error :
    non-orthogonality > 65  degrees                        : 35083
    faces with concavity > 80  degrees                     : 0
    faces with skewness > 4   (internal) or 20  (boundary) : 0
    faces with interpolation weights (0..1)  < 0.05        : 0
    faces with volume ratio of neighbour cells < 0.01      : 0
    faces with face twist < 0.02                           : 0
    faces on cells with determinant < 0.001                : 0

Iteration 7
Moving mesh using displacement scaling : min:0  max:1
Checking faces in error :
    non-orthogonality > 65  degrees                        : 35082
    faces with concavity > 80  degrees                     : 0
    faces with skewness > 4   (internal) or 20  (boundary) : 0
    faces with interpolation weights (0..1)  < 0.05        : 0
    faces with volume ratio of neighbour cells < 0.01      : 0
    faces with face twist < 0.02                           : 0
    faces on cells with determinant < 0.001                : 0
Successfully moved mesh
Moved mesh in = 3.37749 s



Morph iteration 1
-----------------
Calculating patchDisplacement as distance to nearest surface point ...
Wanted displacement : average:2.32904 min:0 max:10.7689
Calculated surface displacement in = 0.029128 s


Detecting near surfaces ...
Overriding nearest with intersection of close gaps at 412 out of 12182 points.
Overriding displacement on features :
   implicit features    : true
   explicit features    : true
   multi-patch features : false

Detected 498 baffle edges out of 23826 edges.
Initially selected 6857 points out of 12182 for reverse attraction.
Selected 10929 points out of 12182 for reverse attraction.
Stringing feature edges : changed 963 points
Stringing feature edges : changed 129 points
Stringing feature edges : changed 24 points
Stringing feature edges : changed 8 points
Stringing feature edges : changed 3 points
Stringing feature edges : changed 1 points
Stringing feature edges : changed 0 points
Attraction:
     linear   : max:(13.3314 0.0598966 -1.02187) avg:(-0.024871 0.0379637 -0.0463287)
     feature  : max:(13.4588 -20.0099 0) avg:(0.0319541 0.0197862 0.0376202)
Feature analysis : total master points:12182 attraction to :
    feature point   : 1037
    feature edge    : 3962
    nearest surface : 0
    rest            : 7183

--> FOAM Warning : Displacement (-0.00709002 0.0447897 -0.336402) at mesh point 59209 coord (-269.816 -80.9783 5.9689) points through the surrounding patch faces
Smoothing displacement ...
Iteration 0
Iteration 10
Iteration 20
Iteration 30
Iteration 40
Iteration 50
Iteration 60
Iteration 70
Iteration 80
Iteration 90
Displacement smoothed in = 0.823134 s


Moving mesh ...

Iteration 0
Moving mesh using displacement scaling : min:1  max:1
Checking faces in error :
    non-orthogonality > 65  degrees                        : 35107
    faces with concavity > 80  degrees                     : 13
    faces with skewness > 4   (internal) or 20  (boundary) : 0
    faces with interpolation weights (0..1)  < 0.05        : 0
    faces with volume ratio of neighbour cells < 0.01      : 0
    faces with face twist < 0.02                           : 0
    faces on cells with determinant < 0.001                : 0

Iteration 1
Moving mesh using displacement scaling : min:0.75  max:1
Checking faces in error :
    non-orthogonality > 65  degrees                        : 35100
    faces with concavity > 80  degrees                     : 13
    faces with skewness > 4   (internal) or 20  (boundary) : 0
    faces with interpolation weights (0..1)  < 0.05        : 0
    faces with volume ratio of neighbour cells < 0.01      : 0
    faces with face twist < 0.02                           : 0
    faces on cells with determinant < 0.001                : 0

Iteration 2
Moving mesh using displacement scaling : min:0.5625  max:1
Checking faces in error :
    non-orthogonality > 65  degrees                        : 35096
    faces with concavity > 80  degrees                     : 11
    faces with skewness > 4   (internal) or 20  (boundary) : 0
    faces with interpolation weights (0..1)  < 0.05        : 0
    faces with volume ratio of neighbour cells < 0.01      : 0
    faces with face twist < 0.02                           : 0
    faces on cells with determinant < 0.001                : 0

Iteration 3
Moving mesh using displacement scaling : min:0.421875  max:1
Checking faces in error :
    non-orthogonality > 65  degrees                        : 35093
    faces with concavity > 80  degrees                     : 8
    faces with skewness > 4   (internal) or 20  (boundary) : 0
    faces with interpolation weights (0..1)  < 0.05        : 0
    faces with volume ratio of neighbour cells < 0.01      : 0
    faces with face twist < 0.02                           : 0
    faces on cells with determinant < 0.001                : 0

Iteration 4
Moving mesh using displacement scaling : min:0.316406  max:1
Checking faces in error :
    non-orthogonality > 65  degrees                        : 35093
    faces with concavity > 80  degrees                     : 6
    faces with skewness > 4   (internal) or 20  (boundary) : 0
    faces with interpolation weights (0..1)  < 0.05        : 0
    faces with volume ratio of neighbour cells < 0.01      : 0
    faces with face twist < 0.02                           : 0
    faces on cells with determinant < 0.001                : 0

Iteration 5
Displacement scaling for error reduction set to 0.
Moving mesh using displacement scaling : min:0.237305  max:1
Checking faces in error :
    non-orthogonality > 65  degrees                        : 35092
    faces with concavity > 80  degrees                     : 6
    faces with skewness > 4   (internal) or 20  (boundary) : 0
    faces with interpolation weights (0..1)  < 0.05        : 0
    faces with volume ratio of neighbour cells < 0.01      : 0
    faces with face twist < 0.02                           : 0
    faces on cells with determinant < 0.001                : 0

Iteration 6
Moving mesh using displacement scaling : min:0  max:1
Checking faces in error :
    non-orthogonality > 65  degrees                        : 35087
    faces with concavity > 80  degrees                     : 1
    faces with skewness > 4   (internal) or 20  (boundary) : 0
    faces with interpolation weights (0..1)  < 0.05        : 0
    faces with volume ratio of neighbour cells < 0.01      : 0
    faces with face twist < 0.02                           : 0
    faces on cells with determinant < 0.001                : 0

Iteration 7
Moving mesh using displacement scaling : min:0  max:1
Checking faces in error :
    non-orthogonality > 65  degrees                        : 35082
    faces with concavity > 80  degrees                     : 1
    faces with skewness > 4   (internal) or 20  (boundary) : 0
    faces with interpolation weights (0..1)  < 0.05        : 0
    faces with volume ratio of neighbour cells < 0.01      : 0
    faces with face twist < 0.02                           : 0
    faces on cells with determinant < 0.001                : 0

Iteration 8
Moving mesh using displacement scaling : min:0  max:1
Checking faces in error :
    non-orthogonality > 65  degrees                        : 35082
    faces with concavity > 80  degrees                     : 0
    faces with skewness > 4   (internal) or 20  (boundary) : 0
    faces with interpolation weights (0..1)  < 0.05        : 0
    faces with volume ratio of neighbour cells < 0.01      : 0
    faces with face twist < 0.02                           : 0
    faces on cells with determinant < 0.001                : 0
Successfully moved mesh
Moved mesh in = 3.95117 s



Morph iteration 2
-----------------
Calculating patchDisplacement as distance to nearest surface point ...
Wanted displacement : average:2.17935 min:0 max:10.3584
Calculated surface displacement in = 0.03274 s


Detecting near surfaces ...
Overriding nearest with intersection of close gaps at 414 out of 12182 points.
Overriding displacement on features :
   implicit features    : true
   explicit features    : true
   multi-patch features : false

Detected 515 baffle edges out of 23826 edges.
Initially selected 6886 points out of 12182 for reverse attraction.
Selected 10971 points out of 12182 for reverse attraction.
Stringing feature edges : changed 975 points
Stringing feature edges : changed 124 points
Stringing feature edges : changed 33 points
Stringing feature edges : changed 12 points
Stringing feature edges : changed 4 points
Stringing feature edges : changed 2 points
Stringing feature edges : changed 4 points
Stringing feature edges : changed 2 points
Stringing feature edges : changed 1 points
Stringing feature edges : changed 1 points
Stringing feature edges : changed 1 points
Stringing feature edges : changed 0 points
Attraction:
     linear   : max:(13.3236 0.0881079 -1.01301) avg:(-0.0292659 0.0362848 -0.0432561)
     feature  : max:(8.1412 17.7297 0) avg:(0.0349327 0.0365287 0.0376851)
Feature analysis : total master points:12182 attraction to :
    feature point   : 1047
    feature edge    : 3997
    nearest surface : 0
    rest            : 7138

--> FOAM Warning : Displacement (-0.0158535 0.100151 -0.449942) at mesh point 59209 coord (-269.818 -80.9644 5.86448) points through the surrounding patch faces
Smoothing displacement ...
Iteration 0
Iteration 10
Iteration 20
Iteration 30
Iteration 40
Iteration 50
Iteration 60
Iteration 70
Iteration 80
Iteration 90
Displacement smoothed in = 1.05102 s


Moving mesh ...

Iteration 0
Moving mesh using displacement scaling : min:1  max:1
Checking faces in error :
    non-orthogonality > 65  degrees                        : 35148
    faces with concavity > 80  degrees                     : 18
    faces with skewness > 4   (internal) or 20  (boundary) : 0
    faces with interpolation weights (0..1)  < 0.05        : 0
    faces with volume ratio of neighbour cells < 0.01      : 0
    faces with face twist < 0.02                           : 12
    faces on cells with determinant < 0.001                : 0

Iteration 1
Moving mesh using displacement scaling : min:0.75  max:1
Checking faces in error :
    non-orthogonality > 65  degrees                        : 35132
    faces with concavity > 80  degrees                     : 16
    faces with skewness > 4   (internal) or 20  (boundary) : 0
    faces with interpolation weights (0..1)  < 0.05        : 0
    faces with volume ratio of neighbour cells < 0.01      : 0
    faces with face twist < 0.02                           : 5
    faces on cells with determinant < 0.001                : 0

Iteration 2
Moving mesh using displacement scaling : min:0.5625  max:1
Checking faces in error :
    non-orthogonality > 65  degrees                        : 35118
    faces with concavity > 80  degrees                     : 16
    faces with skewness > 4   (internal) or 20  (boundary) : 0
    faces with interpolation weights (0..1)  < 0.05        : 0
    faces with volume ratio of neighbour cells < 0.01      : 0
    faces with face twist < 0.02                           : 0
    faces on cells with determinant < 0.001                : 0

Iteration 3
Moving mesh using displacement scaling : min:0.421875  max:1
Checking faces in error :
    non-orthogonality > 65  degrees                        : 35110
    faces with concavity > 80  degrees                     : 14
    faces with skewness > 4   (internal) or 20  (boundary) : 0
    faces with interpolation weights (0..1)  < 0.05        : 0
    faces with volume ratio of neighbour cells < 0.01      : 0
    faces with face twist < 0.02                           : 0
    faces on cells with determinant < 0.001                : 0

Iteration 4
Moving mesh using displacement scaling : min:0.316406  max:1
Checking faces in error :
    non-orthogonality > 65  degrees                        : 35107
    faces with concavity > 80  degrees                     : 11
    faces with skewness > 4   (internal) or 20  (boundary) : 0
    faces with interpolation weights (0..1)  < 0.05        : 0
    faces with volume ratio of neighbour cells < 0.01      : 0
    faces with face twist < 0.02                           : 0
    faces on cells with determinant < 0.001                : 0

Iteration 5
Displacement scaling for error reduction set to 0.
Moving mesh using displacement scaling : min:0.237305  max:1
Checking faces in error :
    non-orthogonality > 65  degrees                        : 35105
    faces with concavity > 80  degrees                     : 10
    faces with skewness > 4   (internal) or 20  (boundary) : 0
    faces with interpolation weights (0..1)  < 0.05        : 0
    faces with volume ratio of neighbour cells < 0.01      : 0
    faces with face twist < 0.02                           : 0
    faces on cells with determinant < 0.001                : 0

Iteration 6
Moving mesh using displacement scaling : min:0  max:1
Checking faces in error :
    non-orthogonality > 65  degrees                        : 35090
    faces with concavity > 80  degrees                     : 4
    faces with skewness > 4   (internal) or 20  (boundary) : 0
    faces with interpolation weights (0..1)  < 0.05        : 0
    faces with volume ratio of neighbour cells < 0.01      : 0
    faces with face twist < 0.02                           : 0
    faces on cells with determinant < 0.001                : 0

Iteration 7
Moving mesh using displacement scaling : min:0  max:1
Checking faces in error :
    non-orthogonality > 65  degrees                        : 35083
    faces with concavity > 80  degrees                     : 0
    faces with skewness > 4   (internal) or 20  (boundary) : 0
    faces with interpolation weights (0..1)  < 0.05        : 0
    faces with volume ratio of neighbour cells < 0.01      : 0
    faces with face twist < 0.02                           : 0
    faces on cells with determinant < 0.001                : 0

Iteration 8
Moving mesh using displacement scaling : min:0  max:1
Checking faces in error :
    non-orthogonality > 65  degrees                        : 35082
    faces with concavity > 80  degrees                     : 0
    faces with skewness > 4   (internal) or 20  (boundary) : 0
    faces with interpolation weights (0..1)  < 0.05        : 0
    faces with volume ratio of neighbour cells < 0.01      : 0
    faces with face twist < 0.02                           : 0
    faces on cells with determinant < 0.001                : 0
Successfully moved mesh
Moved mesh in = 4.17924 s



Morph iteration 3
-----------------
Calculating patchDisplacement as distance to nearest surface point ...
Wanted displacement : average:1.97675 min:0 max:10.1587
Calculated surface displacement in = 0.027367 s


Detecting near surfaces ...
Overriding nearest with intersection of close gaps at 421 out of 12182 points.
Overriding displacement on features :
   implicit features    : true
   explicit features    : true
   multi-patch features : false

Detected 577 baffle edges out of 23826 edges.
Initially selected 6902 points out of 12182 for reverse attraction.
Selected 10951 points out of 12182 for reverse attraction.
Stringing feature edges : changed 984 points
Stringing feature edges : changed 116 points
Stringing feature edges : changed 33 points
Stringing feature edges : changed 11 points
Stringing feature edges : changed 3 points
Stringing feature edges : changed 1 points
Stringing feature edges : changed 0 points
Attraction:
     linear   : max:(13.318 0.108824 -0.998537) avg:(-0.0357851 0.0316056 -0.0416156)
     feature  : max:(8.46094 16.6808 0) avg:(0.027554 0.0152412 0.0459566)
Feature analysis : total master points:12182 attraction to :
    feature point   : 1039
    feature edge    : 3986
    nearest surface : 0
    rest            : 7157

--> FOAM Warning : Displacement (-0.0277812 0.175502 -0.518903) at mesh point 59209 coord (-269.823 -80.9326 5.72157) points through the surrounding patch faces
Smoothing displacement ...
Iteration 0
Iteration 10
Iteration 20
Iteration 30
Iteration 40
Iteration 50
Iteration 60
Iteration 70
Iteration 80
Iteration 90
Displacement smoothed in = 0.797131 s


Moving mesh ...

Iteration 0
Moving mesh using displacement scaling : min:1  max:1
Checking faces in error :
    non-orthogonality > 65  degrees                        : 35243
    faces with concavity > 80  degrees                     : 44
    faces with skewness > 4   (internal) or 20  (boundary) : 0
    faces with interpolation weights (0..1)  < 0.05        : 0
    faces with volume ratio of neighbour cells < 0.01      : 0
    faces with face twist < 0.02                           : 81
    faces on cells with determinant < 0.001                : 0

Iteration 1
Moving mesh using displacement scaling : min:0.75  max:1
Checking faces in error :
    non-orthogonality > 65  degrees                        : 35194
    faces with concavity > 80  degrees                     : 36
    faces with skewness > 4   (internal) or 20  (boundary) : 0
    faces with interpolation weights (0..1)  < 0.05        : 0
    faces with volume ratio of neighbour cells < 0.01      : 0
    faces with face twist < 0.02                           : 33
    faces on cells with determinant < 0.001                : 0

Iteration 2
Moving mesh using displacement scaling : min:0.5625  max:1
Checking faces in error :
    non-orthogonality > 65  degrees                        : 35166
    faces with concavity > 80  degrees                     : 30
    faces with skewness > 4   (internal) or 20  (boundary) : 0
    faces with interpolation weights (0..1)  < 0.05        : 0
    faces with volume ratio of neighbour cells < 0.01      : 0
    faces with face twist < 0.02                           : 17
    faces on cells with determinant < 0.001                : 0

Iteration 3
Moving mesh using displacement scaling : min:0.421875  max:1
Checking faces in error :
    non-orthogonality > 65  degrees                        : 35151
    faces with concavity > 80  degrees                     : 24
    faces with skewness > 4   (internal) or 20  (boundary) : 0
    faces with interpolation weights (0..1)  < 0.05        : 0
    faces with volume ratio of neighbour cells < 0.01      : 0
    faces with face twist < 0.02                           : 12
    faces on cells with determinant < 0.001                : 0

Iteration 4
Moving mesh using displacement scaling : min:0.316406  max:1
Checking faces in error :
    non-orthogonality > 65  degrees                        : 35138
    faces with concavity > 80  degrees                     : 20
    faces with skewness > 4   (internal) or 20  (boundary) : 0
    faces with interpolation weights (0..1)  < 0.05        : 0
    faces with volume ratio of neighbour cells < 0.01      : 0
    faces with face twist < 0.02                           : 7
    faces on cells with determinant < 0.001                : 0

Iteration 5
Displacement scaling for error reduction set to 0.
Moving mesh using displacement scaling : min:0.237305  max:1
Checking faces in error :
    non-orthogonality > 65  degrees                        : 35129
    faces with concavity > 80  degrees                     : 20
    faces with skewness > 4   (internal) or 20  (boundary) : 0
    faces with interpolation weights (0..1)  < 0.05        : 0
    faces with volume ratio of neighbour cells < 0.01      : 0
    faces with face twist < 0.02                           : 6
    faces on cells with determinant < 0.001                : 0

Iteration 6
Moving mesh using displacement scaling : min:0  max:1
Checking faces in error :
    non-orthogonality > 65  degrees                        : 35107
    faces with concavity > 80  degrees                     : 12
    faces with skewness > 4   (internal) or 20  (boundary) : 0
    faces with interpolation weights (0..1)  < 0.05        : 0
    faces with volume ratio of neighbour cells < 0.01      : 0
    faces with face twist < 0.02                           : 3
    faces on cells with determinant < 0.001                : 0

Iteration 7
Moving mesh using displacement scaling : min:0  max:1
Checking faces in error :
    non-orthogonality > 65  degrees                        : 35083
    faces with concavity > 80  degrees                     : 1
    faces with skewness > 4   (internal) or 20  (boundary) : 0
    faces with interpolation weights (0..1)  < 0.05        : 0
    faces with volume ratio of neighbour cells < 0.01      : 0
    faces with face twist < 0.02                           : 0
    faces on cells with determinant < 0.001                : 0

Iteration 8
Moving mesh using displacement scaling : min:0  max:1
Checking faces in error :
    non-orthogonality > 65  degrees                        : 35085
    faces with concavity > 80  degrees                     : 0
    faces with skewness > 4   (internal) or 20  (boundary) : 0
    faces with interpolation weights (0..1)  < 0.05        : 0
    faces with volume ratio of neighbour cells < 0.01      : 0
    faces with face twist < 0.02                           : 0
    faces on cells with determinant < 0.001                : 0

Iteration 9
Moving mesh using displacement scaling : min:0  max:1
Checking faces in error :
    non-orthogonality > 65  degrees                        : 35082
    faces with concavity > 80  degrees                     : 0
    faces with skewness > 4   (internal) or 20  (boundary) : 0
    faces with interpolation weights (0..1)  < 0.05        : 0
    faces with volume ratio of neighbour cells < 0.01      : 0
    faces with face twist < 0.02                           : 0
    faces on cells with determinant < 0.001                : 0
Successfully moved mesh
Moved mesh in = 4.59288 s



Morph iteration 4
-----------------
Calculating patchDisplacement as distance to nearest surface point ...
Wanted displacement : average:1.77307 min:0 max:10.1263
Calculated surface displacement in = 0.026488 s


Detecting near surfaces ...
Overriding nearest with intersection of close gaps at 460 out of 12182 points.
Overriding displacement on features :
   implicit features    : true
   explicit features    : true
   multi-patch features : false

Detected 643 baffle edges out of 23826 edges.
Initially selected 6925 points out of 12182 for reverse attraction.
Selected 10942 points out of 12182 for reverse attraction.
Stringing feature edges : changed 994 points
Stringing feature edges : changed 126 points
Stringing feature edges : changed 39 points
Stringing feature edges : changed 9 points
Stringing feature edges : changed 3 points
Stringing feature edges : changed 1 points
Stringing feature edges : changed 0 points
Attraction:
     linear   : max:(-9.03951 6.45679 -1.33227e-15) avg:(-0.0369342 0.0309699 -0.0387313)
     feature  : max:(21.8375 2.59331 0) avg:(0.0283865 0.00523898 0.0508513)
Feature analysis : total master points:12182 attraction to :
    feature point   : 1031
    feature edge    : 4041
    nearest surface : 0
    rest            : 7110

--> FOAM Warning : Displacement (-1.05854 -0.00706486 -0.799037) at mesh point 59209 coord (-269.83 -80.8891 5.59314) points through the surrounding patch faces
Smoothing displacement ...
Iteration 0
Iteration 10
Iteration 20
Iteration 30
Iteration 40
Iteration 50
Iteration 60
Iteration 70
Iteration 80
Iteration 90
Displacement smoothed in = 0.812341 s


Moving mesh ...

Iteration 0
Moving mesh using displacement scaling : min:1  max:1
Checking faces in error :
    non-orthogonality > 65  degrees                        : 35562
    faces with concavity > 80  degrees                     : 76
    faces with skewness > 4   (internal) or 20  (boundary) : 0
    faces with interpolation weights (0..1)  < 0.05        : 0
    faces with volume ratio of neighbour cells < 0.01      : 0
    faces with face twist < 0.02                           : 373
    faces on cells with determinant < 0.001                : 4

Iteration 1
Moving mesh using displacement scaling : min:0.75  max:1
Checking faces in error :
    non-orthogonality > 65  degrees                        : 35362
    faces with concavity > 80  degrees                     : 54
    faces with skewness > 4   (internal) or 20  (boundary) : 1
    faces with interpolation weights (0..1)  < 0.05        : 0
    faces with volume ratio of neighbour cells < 0.01      : 1
    faces with face twist < 0.02                           : 217
    faces on cells with determinant < 0.001                : 5

Iteration 2
Moving mesh using displacement scaling : min:0.5625  max:1
Checking faces in error :
    non-orthogonality > 65  degrees                        : 35280
    faces with concavity > 80  degrees                     : 45
    faces with skewness > 4   (internal) or 20  (boundary) : 0
    faces with interpolation weights (0..1)  < 0.05        : 0
    faces with volume ratio of neighbour cells < 0.01      : 0
    faces with face twist < 0.02                           : 96
    faces on cells with determinant < 0.001                : 0

Iteration 3
Moving mesh using displacement scaling : min:0.421875  max:1
Checking faces in error :
    non-orthogonality > 65  degrees                        : 35229
    faces with concavity > 80  degrees                     : 44
    faces with skewness > 4   (internal) or 20  (boundary) : 1
    faces with interpolation weights (0..1)  < 0.05        : 0
    faces with volume ratio of neighbour cells < 0.01      : 0
    faces with face twist < 0.02                           : 56
    faces on cells with determinant < 0.001                : 0

Iteration 4
Moving mesh using displacement scaling : min:0.316406  max:1
Checking faces in error :
    non-orthogonality > 65  degrees                        : 35199
    faces with concavity > 80  degrees                     : 33
    faces with skewness > 4   (internal) or 20  (boundary) : 0
    faces with interpolation weights (0..1)  < 0.05        : 0
    faces with volume ratio of neighbour cells < 0.01      : 0
    faces with face twist < 0.02                           : 46
    faces on cells with determinant < 0.001                : 0

Iteration 5
Displacement scaling for error reduction set to 0.
Moving mesh using displacement scaling : min:0.237305  max:1
Checking faces in error :
    non-orthogonality > 65  degrees                        : 35171
    faces with concavity > 80  degrees                     : 27
    faces with skewness > 4   (internal) or 20  (boundary) : 0
    faces with interpolation weights (0..1)  < 0.05        : 0
    faces with volume ratio of neighbour cells < 0.01      : 0
    faces with face twist < 0.02                           : 29
    faces on cells with determinant < 0.001                : 0

Iteration 6
Moving mesh using displacement scaling : min:0  max:1
Checking faces in error :
    non-orthogonality > 65  degrees                        : 35160
    faces with concavity > 80  degrees                     : 13
    faces with skewness > 4   (internal) or 20  (boundary) : 0
    faces with interpolation weights (0..1)  < 0.05        : 0
    faces with volume ratio of neighbour cells < 0.01      : 0
    faces with face twist < 0.02                           : 6
    faces on cells with determinant < 0.001                : 0

Iteration 7
Moving mesh using displacement scaling : min:0  max:1
Checking faces in error :
    non-orthogonality > 65  degrees                        : 35086
    faces with concavity > 80  degrees                     : 4
    faces with skewness > 4   (internal) or 20  (boundary) : 0
    faces with interpolation weights (0..1)  < 0.05        : 0
    faces with volume ratio of neighbour cells < 0.01      : 0
    faces with face twist < 0.02                           : 1
    faces on cells with determinant < 0.001                : 0

Iteration 8
Moving mesh using displacement scaling : min:0  max:1
Checking faces in error :
    non-orthogonality > 65  degrees                        : 35082
    faces with concavity > 80  degrees                     : 1
    faces with skewness > 4   (internal) or 20  (boundary) : 0
    faces with interpolation weights (0..1)  < 0.05        : 0
    faces with volume ratio of neighbour cells < 0.01      : 0
    faces with face twist < 0.02                           : 0
    faces on cells with determinant < 0.001                : 0

Iteration 9
Moving mesh using displacement scaling : min:0  max:1
Checking faces in error :
    non-orthogonality > 65  degrees                        : 35083
    faces with concavity > 80  degrees                     : 0
    faces with skewness > 4   (internal) or 20  (boundary) : 0
    faces with interpolation weights (0..1)  < 0.05        : 0
    faces with volume ratio of neighbour cells < 0.01      : 0
    faces with face twist < 0.02                           : 0
    faces on cells with determinant < 0.001                : 0
Moved mesh in = 4.74352 s


--> FOAM Warning : 
    From function void Foam::snappySnapDriver::doSnap(const Foam::dictionary&, const Foam::dictionary&, Foam::scalar, Foam::scalar, const Foam::snapParameters&)
    in file snappyHexMeshDriver/snappySnapDriver.C at line 2729
    Did not successfully snap mesh. Continuing to snap to resolve easy
    surfaces but the resulting mesh will not satisfy your quality constraints


Morph iteration 5
-----------------
Calculating patchDisplacement as distance to nearest surface point ...
Wanted displacement : average:1.59164 min:0 max:10.1263
Calculated surface displacement in = 0.026308 s


Detecting near surfaces ...
Overriding nearest with intersection of close gaps at 468 out of 12182 points.
Overriding displacement on features :
   implicit features    : true
   explicit features    : true
   multi-patch features : false

Detected 726 baffle edges out of 23826 edges.
Initially selected 6961 points out of 12182 for reverse attraction.
Selected 10969 points out of 12182 for reverse attraction.
Stringing feature edges : changed 1056 points
Stringing feature edges : changed 128 points
Stringing feature edges : changed 34 points
Stringing feature edges : changed 12 points
Stringing feature edges : changed 8 points
Stringing feature edges : changed 1 points
Stringing feature edges : changed 0 points
Attraction:
     linear   : max:(-9.03951 6.45679 -1.33227e-15) avg:(-0.0329038 0.0301255 -0.0379647)
     feature  : max:(20.3814 2.67719 0) avg:(0.0234364 0.0118485 0.0599342)
Feature analysis : total master points:12182 attraction to :
    feature point   : 1037
    feature edge    : 4114
    nearest surface : 0
    rest            : 7031

--> FOAM Warning : Displacement (-1.45487 -0.00971002 -0.618773) at mesh point 59209 coord (-270.023 -80.8904 5.44756) points through the surrounding patch faces
Smoothing displacement ...
Iteration 0
Iteration 10
Iteration 20
Iteration 30
Iteration 40
Iteration 50
Iteration 60
Iteration 70
Iteration 80
Iteration 90
Displacement smoothed in = 0.827429 s


Moving mesh ...

Iteration 0
Moving mesh using displacement scaling : min:1  max:1
Checking faces in error :
    non-orthogonality > 65  degrees                        : 36209
    faces with concavity > 80  degrees                     : 109
    faces with skewness > 4   (internal) or 20  (boundary) : 1
    faces with interpolation weights (0..1)  < 0.05        : 9
    faces with volume ratio of neighbour cells < 0.01      : 4
    faces with face twist < 0.02                           : 795
    faces on cells with determinant < 0.001                : 13

Iteration 1
Moving mesh using displacement scaling : min:0.75  max:1
Checking faces in error :
    non-orthogonality > 65  degrees                        : 35766
    faces with concavity > 80  degrees                     : 91
    faces with skewness > 4   (internal) or 20  (boundary) : 0
    faces with interpolation weights (0..1)  < 0.05        : 0
    faces with volume ratio of neighbour cells < 0.01      : 0
    faces with face twist < 0.02                           : 490
    faces on cells with determinant < 0.001                : 7

Iteration 2
Moving mesh using displacement scaling : min:0.5625  max:1
Checking faces in error :
    non-orthogonality > 65  degrees                        : 35507
    faces with concavity > 80  degrees                     : 73
    faces with skewness > 4   (internal) or 20  (boundary) : 1
    faces with interpolation weights (0..1)  < 0.05        : 0
    faces with volume ratio of neighbour cells < 0.01      : 1
    faces with face twist < 0.02                           : 312
    faces on cells with determinant < 0.001                : 5

Iteration 3
Moving mesh using displacement scaling : min:0.421875  max:1
Checking faces in error :
    non-orthogonality > 65  degrees                        : 35372
    faces with concavity > 80  degrees                     : 57
    faces with skewness > 4   (internal) or 20  (boundary) : 1
    faces with interpolation weights (0..1)  < 0.05        : 0
    faces with volume ratio of neighbour cells < 0.01      : 0
    faces with face twist < 0.02                           : 177
    faces on cells with determinant < 0.001                : 0

Iteration 4
Moving mesh using displacement scaling : min:0.316406  max:1
Checking faces in error :
    non-orthogonality > 65  degrees                        : 35297
    faces with concavity > 80  degrees                     : 46
    faces with skewness > 4   (internal) or 20  (boundary) : 0
    faces with interpolation weights (0..1)  < 0.05        : 0
    faces with volume ratio of neighbour cells < 0.01      : 0
    faces with face twist < 0.02                           : 113
    faces on cells with determinant < 0.001                : 0

Iteration 5
Displacement scaling for error reduction set to 0.
Moving mesh using displacement scaling : min:0.237305  max:1
Checking faces in error :
    non-orthogonality > 65  degrees                        : 35257
    faces with concavity > 80  degrees                     : 39
    faces with skewness > 4   (internal) or 20  (boundary) : 0
    faces with interpolation weights (0..1)  < 0.05        : 0
    faces with volume ratio of neighbour cells < 0.01      : 0
    faces with face twist < 0.02                           : 82
    faces on cells with determinant < 0.001                : 0

Iteration 6
Moving mesh using displacement scaling : min:0  max:1
Checking faces in error :
    non-orthogonality > 65  degrees                        : 35210
    faces with concavity > 80  degrees                     : 18
    faces with skewness > 4   (internal) or 20  (boundary) : 0
    faces with interpolation weights (0..1)  < 0.05        : 0
    faces with volume ratio of neighbour cells < 0.01      : 0
    faces with face twist < 0.02                           : 26
    faces on cells with determinant < 0.001                : 0

Iteration 7
Moving mesh using displacement scaling : min:0  max:1
Checking faces in error :
    non-orthogonality > 65  degrees                        : 35091
    faces with concavity > 80  degrees                     : 5
    faces with skewness > 4   (internal) or 20  (boundary) : 0
    faces with interpolation weights (0..1)  < 0.05        : 0
    faces with volume ratio of neighbour cells < 0.01      : 0
    faces with face twist < 0.02                           : 4
    faces on cells with determinant < 0.001                : 0

Iteration 8
Moving mesh using displacement scaling : min:0  max:1
Checking faces in error :
    non-orthogonality > 65  degrees                        : 35083
    faces with concavity > 80  degrees                     : 1
    faces with skewness > 4   (internal) or 20  (boundary) : 0
    faces with interpolation weights (0..1)  < 0.05        : 0
    faces with volume ratio of neighbour cells < 0.01      : 0
    faces with face twist < 0.02                           : 1
    faces on cells with determinant < 0.001                : 0

Iteration 9
Moving mesh using displacement scaling : min:0  max:1
Checking faces in error :
    non-orthogonality > 65  degrees                        : 35083
    faces with concavity > 80  degrees                     : 0
    faces with skewness > 4   (internal) or 20  (boundary) : 0
    faces with interpolation weights (0..1)  < 0.05        : 0
    faces with volume ratio of neighbour cells < 0.01      : 0
    faces with face twist < 0.02                           : 0
    faces on cells with determinant < 0.001                : 0
Moved mesh in = 4.71489 s


--> FOAM Warning : 
    From function void Foam::snappySnapDriver::doSnap(const Foam::dictionary&, const Foam::dictionary&, Foam::scalar, Foam::scalar, const Foam::snapParameters&)
    in file snappyHexMeshDriver/snappySnapDriver.C at line 2729
    Did not successfully snap mesh. Continuing to snap to resolve easy
    surfaces but the resulting mesh will not satisfy your quality constraints


Morph iteration 6
-----------------
Calculating patchDisplacement as distance to nearest surface point ...
Wanted displacement : average:1.45412 min:0 max:10.1263
Calculated surface displacement in = 0.025191 s


Detecting near surfaces ...
Overriding nearest with intersection of close gaps at 485 out of 12182 points.
Overriding displacement on features :
   implicit features    : true
   explicit features    : true
   multi-patch features : false

Detected 815 baffle edges out of 23826 edges.
Initially selected 7044 points out of 12182 for reverse attraction.
Selected 11044 points out of 12182 for reverse attraction.
Stringing feature edges : changed 1087 points
Stringing feature edges : changed 149 points
Stringing feature edges : changed 29 points
Stringing feature edges : changed 5 points
Stringing feature edges : changed 2 points
Stringing feature edges : changed 0 points
Attraction:
     linear   : max:(-9.03951 6.45679 -1.33227e-15) avg:(-0.0368479 0.0245484 -0.0370712)
     feature  : max:(19.5712 2.65466 0) avg:(0.019176 0.0164752 0.0626375)
Feature analysis : total master points:12182 attraction to :
    feature point   : 1027
    feature edge    : 4189
    nearest surface : 0
    rest            : 6966

--> FOAM Warning : Displacement (2.31138 0.356 -0.957063) at mesh point 64936 coord (-266.337 -89.9844 5.46723) points through the surrounding patch faces
Smoothing displacement ...
Iteration 0
Iteration 10
Iteration 20
Iteration 30
Iteration 40
Iteration 50
Iteration 60
Iteration 70
Iteration 80
Iteration 90
Displacement smoothed in = 0.797827 s


Moving mesh ...

Iteration 0
Moving mesh using displacement scaling : min:1  max:1
Checking faces in error :
    non-orthogonality > 65  degrees                        : 37150
    faces with concavity > 80  degrees                     : 157
    faces with skewness > 4   (internal) or 20  (boundary) : 3
    faces with interpolation weights (0..1)  < 0.05        : 17
    faces with volume ratio of neighbour cells < 0.01      : 8
    faces with face twist < 0.02                           : 1335
    faces on cells with determinant < 0.001                : 36

Iteration 1
Moving mesh using displacement scaling : min:0.75  max:1
Checking faces in error :
    non-orthogonality > 65  degrees                        : 36347
    faces with concavity > 80  degrees                     : 125
    faces with skewness > 4   (internal) or 20  (boundary) : 1
    faces with interpolation weights (0..1)  < 0.05        : 8
    faces with volume ratio of neighbour cells < 0.01      : 7
    faces with face twist < 0.02                           : 894
    faces on cells with determinant < 0.001                : 11

Iteration 2
Moving mesh using displacement scaling : min:0.5625  max:1
Checking faces in error :
    non-orthogonality > 65  degrees                        : 35844
    faces with concavity > 80  degrees                     : 102
    faces with skewness > 4   (internal) or 20  (boundary) : 2
    faces with interpolation weights (0..1)  < 0.05        : 2
    faces with volume ratio of neighbour cells < 0.01      : 0
    faces with face twist < 0.02                           : 576
    faces on cells with determinant < 0.001                : 8

Iteration 3
Moving mesh using displacement scaling : min:0.421875  max:1
Checking faces in error :
    non-orthogonality > 65  degrees                        : 35588
    faces with concavity > 80  degrees                     : 75
    faces with skewness > 4   (internal) or 20  (boundary) : 1
    faces with interpolation weights (0..1)  < 0.05        : 0
    faces with volume ratio of neighbour cells < 0.01      : 0
    faces with face twist < 0.02                           : 398
    faces on cells with determinant < 0.001                : 2

Iteration 4
Moving mesh using displacement scaling : min:0.316406  max:1
Checking faces in error :
    non-orthogonality > 65  degrees                        : 35439
    faces with concavity > 80  degrees                     : 65
    faces with skewness > 4   (internal) or 20  (boundary) : 1
    faces with interpolation weights (0..1)  < 0.05        : 0
    faces with volume ratio of neighbour cells < 0.01      : 0
    faces with face twist < 0.02                           : 210
    faces on cells with determinant < 0.001                : 0

Iteration 5
Displacement scaling for error reduction set to 0.
Moving mesh using displacement scaling : min:0.237305  max:1
Checking faces in error :
    non-orthogonality > 65  degrees                        : 35351
    faces with concavity > 80  degrees                     : 41
    faces with skewness > 4   (internal) or 20  (boundary) : 0
    faces with interpolation weights (0..1)  < 0.05        : 0
    faces with volume ratio of neighbour cells < 0.01      : 0
    faces with face twist < 0.02                           : 147
    faces on cells with determinant < 0.001                : 0

Iteration 6
Moving mesh using displacement scaling : min:0  max:1
Checking faces in error :
    non-orthogonality > 65  degrees                        : 35258
    faces with concavity > 80  degrees                     : 21
    faces with skewness > 4   (internal) or 20  (boundary) : 0
[...]
Wanted displacement : average:1.30396 min:0 max:9.70248
Calculated surface displacement in = 0.024615 s


Detecting near surfaces ...
Overriding nearest with intersection of close gaps at 516 out of 12182 points.
Overriding displacement on features :
   implicit features    : true
   explicit features    : true
   multi-patch features : false

Detected 1027 baffle edges out of 23826 edges.
Initially selected 7122 points out of 12182 for reverse attraction.
Selected 11034 points out of 12182 for reverse attraction.
Stringing feature edges : changed 1097 points
Stringing feature edges : changed 139 points
Stringing feature edges : changed 31 points
Stringing feature edges : changed 6 points
Stringing feature edges : changed 0 points
Attraction:
     linear   : max:(-9.03951 6.45679 -1.33227e-15) avg:(-0.0333684 0.0180794 -0.036999)
     feature  : max:(19.5712 2.65466 0) avg:(0.0153012 0.00653151 0.0639395)
Feature analysis : total master points:12182 attraction to :
    feature point   : 1015
    feature edge    : 4259
    nearest surface : 0
    rest            : 6908

--> FOAM Warning : Displacement (-3.2699 -0.0218237 -0.784373) at mesh point 59209 coord (-270.027 -80.8905 5.44594) points through the surrounding patch faces
Smoothing displacement ...
Iteration 0
Iteration 10
Iteration 20
Iteration 30
Iteration 40
Iteration 50
Iteration 60
Iteration 70
Iteration 80
Iteration 90
Displacement smoothed in = 0.797621 s


Moving mesh ...

Iteration 0
Moving mesh using displacement scaling : min:1  max:1
Checking faces in error :
    non-orthogonality > 65  degrees                        : 39252
    faces with concavity > 80  degrees                     : 276
    faces with skewness > 4   (internal) or 20  (boundary) : 6
    faces with interpolation weights (0..1)  < 0.05        : 29
    faces with volume ratio of neighbour cells < 0.01      : 16
    faces with face twist < 0.02                           : 2462
    faces on cells with determinant < 0.001                : 107

Iteration 1
Moving mesh using displacement scaling : min:0.75  max:1
Checking faces in error :
    non-orthogonality > 65  degrees                        : 38072
    faces with concavity > 80  degrees                     : 195
    faces with skewness > 4   (internal) or 20  (boundary) : 5
    faces with interpolation weights (0..1)  < 0.05        : 32
    faces with volume ratio of neighbour cells < 0.01      : 9
    faces with face twist < 0.02                           : 1835
    faces on cells with determinant < 0.001                : 62

Iteration 2
Moving mesh using displacement scaling : min:0.5625  max:1
Checking faces in error :
    non-orthogonality > 65  degrees                        : 37092
    faces with concavity > 80  degrees                     : 176
    faces with skewness > 4   (internal) or 20  (boundary) : 1
    faces with interpolation weights (0..1)  < 0.05        : 19
    faces with volume ratio of neighbour cells < 0.01      : 0
    faces with face twist < 0.02                           : 1358
    faces on cells with determinant < 0.001                : 29

Iteration 3
Moving mesh using displacement scaling : min:0.421875  max:1
Checking faces in error :
    non-orthogonality > 65  degrees                        : 36412
    faces with concavity > 80  degrees                     : 129
    faces with skewness > 4   (internal) or 20  (boundary) : 0
    faces with interpolation weights (0..1)  < 0.05        : 1
    faces with volume ratio of neighbour cells < 0.01      : 1
    faces with face twist < 0.02                           : 973
    faces on cells with determinant < 0.001                : 13

Iteration 4
Moving mesh using displacement scaling : min:0.316406  max:1
Checking faces in error :
    non-orthogonality > 65  degrees                        : 35936
    faces with concavity > 80  degrees                     : 100
    faces with skewness > 4   (internal) or 20  (boundary) : 0
    faces with interpolation weights (0..1)  < 0.05        : 1
    faces with volume ratio of neighbour cells < 0.01      : 1
    faces with face twist < 0.02                           : 700
    faces on cells with determinant < 0.001                : 4

Iteration 5
Displacement scaling for error reduction set to 0.
Moving mesh using displacement scaling : min:0.237305  max:1
Checking faces in error :
    non-orthogonality > 65  degrees                        : 35657
    faces with concavity > 80  degrees                     : 78
    faces with skewness > 4   (internal) or 20  (boundary) : 2
    faces with interpolation weights (0..1)  < 0.05        : 0
    faces with volume ratio of neighbour cells < 0.01      : 0
    faces with face twist < 0.02                           : 470
    faces on cells with determinant < 0.001                : 0

Iteration 6
Moving mesh using displacement scaling : min:0  max:1
Checking faces in error :
    non-orthogonality > 65  degrees                        : 35274
    faces with concavity > 80  degrees                     : 24
    faces with skewness > 4   (internal) or 20  (boundary) : 0
    faces with interpolation weights (0..1)  < 0.05        : 0
    faces with volume ratio of neighbour cells < 0.01      : 0
    faces with face twist < 0.02                           : 59
    faces on cells with determinant < 0.001                : 0

Iteration 7
Moving mesh using displacement scaling : min:0  max:1
Checking faces in error :
    non-orthogonality > 65  degrees                        : 35097
    faces with concavity > 80  degrees                     : 3
    faces with skewness > 4   (internal) or 20  (boundary) : 0
    faces with interpolation weights (0..1)  < 0.05        : 0
    faces with volume ratio of neighbour cells < 0.01      : 0
    faces with face twist < 0.02                           : 8
    faces on cells with determinant < 0.001                : 0

Iteration 8
Moving mesh using displacement scaling : min:0  max:1
Checking faces in error :
    non-orthogonality > 65  degrees                        : 35083
    faces with concavity > 80  degrees                     : 1
    faces with skewness > 4   (internal) or 20  (boundary) : 0
    faces with interpolation weights (0..1)  < 0.05        : 0
    faces with volume ratio of neighbour cells < 0.01      : 0
    faces with face twist < 0.02                           : 1
    faces on cells with determinant < 0.001                : 0

Iteration 9
Moving mesh using displacement scaling : min:0  max:1
Checking faces in error :
    non-orthogonality > 65  degrees                        : 35083
    faces with concavity > 80  degrees                     : 2
    faces with skewness > 4   (internal) or 20  (boundary) : 0
    faces with interpolation weights (0..1)  < 0.05        : 0
    faces with volume ratio of neighbour cells < 0.01      : 0
    faces with face twist < 0.02                           : 1
    faces on cells with determinant < 0.001                : 0
Moved mesh in = 4.71882 s


--> FOAM Warning : 
    From function void Foam::snappySnapDriver::doSnap(const Foam::dictionary&, const Foam::dictionary&, Foam::scalar, Foam::scalar, const Foam::snapParameters&)
    in file snappyHexMeshDriver/snappySnapDriver.C at line 2729
    Did not successfully snap mesh. Continuing to snap to resolve easy
    surfaces but the resulting mesh will not satisfy your quality constraints


Morph iteration 9
-----------------
Calculating patchDisplacement as distance to nearest surface point ...
Wanted displacement : average:1.27192 min:0 max:9.85992
Calculated surface displacement in = 0.024221 s


Detecting near surfaces ...
Overriding nearest with intersection of close gaps at 527 out of 12182 points.
Overriding displacement on features :
   implicit features    : true
   explicit features    : true
   multi-patch features : false

Detected 1099 baffle edges out of 23826 edges.
Initially selected 7137 points out of 12182 for reverse attraction.
Selected 11039 points out of 12182 for reverse attraction.
Stringing feature edges : changed 1129 points
Stringing feature edges : changed 144 points
Stringing feature edges : changed 35 points
Stringing feature edges : changed 6 points
Stringing feature edges : changed 0 points
Attraction:
     linear   : max:(-9.03951 6.45679 -1.33227e-15) avg:(-0.0336784 0.018004 -0.0369252)
     feature  : max:(19.5712 2.65466 0) avg:(0.0159135 0.00987362 0.0638128)
Feature analysis : total master points:12182 attraction to :
    feature point   : 1012
    feature edge    : 4324
    nearest surface : 0
    rest            : 6846

--> FOAM Warning : Displacement (4.71608 0.726372 -1.36662) at mesh point 64936 coord (-266.336 -89.9842 5.46662) points through the surrounding patch faces
Smoothing displacement ...
Iteration 0
Iteration 10
Iteration 20
Iteration 30
Iteration 40
Iteration 50
Iteration 60
Iteration 70
Iteration 80
Iteration 90
Displacement smoothed in = 0.796338 s


Moving mesh ...

Iteration 0
Moving mesh using displacement scaling : min:1  max:1
Checking faces in error :
    non-orthogonality > 65  degrees                        : 39282
    faces with concavity > 80  degrees                     : 534
    faces with skewness > 4   (internal) or 20  (boundary) : 11
    faces with interpolation weights (0..1)  < 0.05        : 49
    faces with volume ratio of neighbour cells < 0.01      : 12
    faces with face twist < 0.02                           : 2759
    faces on cells with determinant < 0.001                : 128

Iteration 1
Moving mesh using displacement scaling : min:0.75  max:1
Checking faces in error :
    non-orthogonality > 65  degrees                        : 37944
    faces with concavity > 80  degrees                     : 282
    faces with skewness > 4   (internal) or 20  (boundary) : 12
    faces with interpolation weights (0..1)  < 0.05        : 30
    faces with volume ratio of neighbour cells < 0.01      : 9
    faces with face twist < 0.02                           : 1758
    faces on cells with determinant < 0.001                : 65

Iteration 2
Moving mesh using displacement scaling : min:0.5625  max:1
Checking faces in error :
    non-orthogonality > 65  degrees                        : 36998
    faces with concavity > 80  degrees                     : 175
    faces with skewness > 4   (internal) or 20  (boundary) : 0
    faces with interpolation weights (0..1)  < 0.05        : 9
    faces with volume ratio of neighbour cells < 0.01      : 0
    faces with face twist < 0.02                           : 1263
    faces on cells with determinant < 0.001                : 24

Iteration 3
Moving mesh using displacement scaling : min:0.421875  max:1
Checking faces in error :
    non-orthogonality > 65  degrees                        : 36291
    faces with concavity > 80  degrees                     : 123
    faces with skewness > 4   (internal) or 20  (boundary) : 0
    faces with interpolation weights (0..1)  < 0.05        : 2
    faces with volume ratio of neighbour cells < 0.01      : 1
    faces with face twist < 0.02                           : 900
    faces on cells with determinant < 0.001                : 9

Iteration 4
Moving mesh using displacement scaling : min:0.316406  max:1
Checking faces in error :
    non-orthogonality > 65  degrees                        : 35862
    faces with concavity > 80  degrees                     : 87
    faces with skewness > 4   (internal) or 20  (boundary) : 3
    faces with interpolation weights (0..1)  < 0.05        : 3
    faces with volume ratio of neighbour cells < 0.01      : 0
    faces with face twist < 0.02                           : 653
    faces on cells with determinant < 0.001                : 3

Iteration 5
Displacement scaling for error reduction set to 0.
Moving mesh using displacement scaling : min:0.237305  max:1
Checking faces in error :
    non-orthogonality > 65  degrees                        : 35638
    faces with concavity > 80  degrees                     : 73
    faces with skewness > 4   (internal) or 20  (boundary) : 1
    faces with interpolation weights (0..1)  < 0.05        : 1
    faces with volume ratio of neighbour cells < 0.01      : 0
    faces with face twist < 0.02                           : 408
    faces on cells with determinant < 0.001                : 2

Iteration 6
Moving mesh using displacement scaling : min:0  max:1
Checking faces in error :
    non-orthogonality > 65  degrees                        : 35227
    faces with concavity > 80  degrees                     : 17
    faces with skewness > 4   (internal) or 20  (boundary) : 0
    faces with interpolation weights (0..1)  < 0.05        : 0
    faces with volume ratio of neighbour cells < 0.01      : 0
    faces with face twist < 0.02                           : 41
    faces on cells with determinant < 0.001                : 0

Iteration 7
Moving mesh using displacement scaling : min:0  max:1
Checking faces in error :
    non-orthogonality > 65  degrees                        : 35092
    faces with concavity > 80  degrees                     : 6
    faces with skewness > 4   (internal) or 20  (boundary) : 0
    faces with interpolation weights (0..1)  < 0.05        : 0
    faces with volume ratio of neighbour cells < 0.01      : 0
    faces with face twist < 0.02                           : 2
    faces on cells with determinant < 0.001                : 0

Iteration 8
Moving mesh using displacement scaling : min:0  max:1
Checking faces in error :
    non-orthogonality > 65  degrees                        : 35084
    faces with concavity > 80  degrees                     : 3
    faces with skewness > 4   (internal) or 20  (boundary) : 0
    faces with interpolation weights (0..1)  < 0.05        : 0
    faces with volume ratio of neighbour cells < 0.01      : 0
    faces with face twist < 0.02                           : 1
    faces on cells with determinant < 0.001                : 0

Iteration 9
Moving mesh using displacement scaling : min:0  max:1
Checking faces in error :
    non-orthogonality > 65  degrees                        : 35083
    faces with concavity > 80  degrees                     : 2
    faces with skewness > 4   (internal) or 20  (boundary) : 0
    faces with interpolation weights (0..1)  < 0.05        : 0
    faces with volume ratio of neighbour cells < 0.01      : 0
    faces with face twist < 0.02                           : 1
    faces on cells with determinant < 0.001                : 0
Moved mesh in = 4.70842 s


--> FOAM Warning : 
    From function void Foam::snappySnapDriver::doSnap(const Foam::dictionary&, const Foam::dictionary&, Foam::scalar, Foam::scalar, const Foam::snapParameters&)
    in file snappyHexMeshDriver/snappySnapDriver.C at line 2729
    Did not successfully snap mesh. Continuing to snap to resolve easy
    surfaces but the resulting mesh will not satisfy your quality constraints

Repatching faces according to nearest surface ...
Repatched 0 faces in = 0.034846 s


Edge intersection testing:
    Number of edges             : 824278
    Number of edges to retest   : 166908
    Number of intersected edges : 8987
Merging 864 sets of faces.

Edge intersection testing:
    Number of edges             : 823368
    Number of edges to retest   : 3710
    Number of intersected edges : 8236

Undo iteration 0
----------------
Checking faces in error :
    non-orthogonality > 65  degrees                        : 35163
    faces with concavity > 80  degrees                     : 2
    faces with skewness > 4   (internal) or 20  (boundary) : 0
    faces with interpolation weights (0..1)  < 0.05        : 0
    faces with volume ratio of neighbour cells < 0.01      : 0
    faces with face twist < 0.02                           : 66
    faces on cells with determinant < 0.001                : 0
Masters that need to be restored:148
Edge intersection testing:
    Number of edges             : 823545
    Number of edges to retest   : 865
    Number of intersected edges : 8346


Undo iteration 1
----------------
Checking faces in error :
    non-orthogonality > 65  degrees                        : 35083
    faces with concavity > 80  degrees                     : 2
    faces with skewness > 4   (internal) or 20  (boundary) : 0
    faces with interpolation weights (0..1)  < 0.05        : 0
    faces with volume ratio of neighbour cells < 0.01      : 0
    faces with face twist < 0.02                           : 1
    faces on cells with determinant < 0.001                : 0
Masters that need to be restored:1
Edge intersection testing:
    Number of edges             : 823546
    Number of edges to retest   : 6
    Number of intersected edges : 8346


Undo iteration 2
----------------
Checking faces in error :
    non-orthogonality > 65  degrees                        : 35082
    faces with concavity > 80  degrees                     : 2
    faces with skewness > 4   (internal) or 20  (boundary) : 0
    faces with interpolation weights (0..1)  < 0.05        : 0
    faces with volume ratio of neighbour cells < 0.01      : 0
    faces with face twist < 0.02                           : 1
    faces on cells with determinant < 0.001                : 0
Masters that need to be restored:0

Merging all points on surface that
- are used by only two boundary faces and
- make an angle with a cosine of more than 0.866025.

Removing 512 straight edge points ...

Edge intersection testing:
    Number of edges             : 823546
    Number of edges to retest   : 2544
    Number of intersected edges : 8335

Undo iteration 0
----------------
Checking faces in error :
    non-orthogonality > 65  degrees                        : 35099
    faces with concavity > 80  degrees                     : 2
    faces with skewness > 4   (internal) or 20  (boundary) : 0
    faces with interpolation weights (0..1)  < 0.05        : 0
    faces with volume ratio of neighbour cells < 0.01      : 0
    faces with face twist < 0.02                           : 2
    faces on cells with determinant < 0.001                : 0
Detected 2 error faces on boundaries that have been merged. These will be restored to their original faces.

Edge intersection testing:
    Number of edges             : 823546
    Number of edges to retest   : 13
    Number of intersected edges : 8336

Undo iteration 1
----------------
Checking faces in error :
    non-orthogonality > 65  degrees                        : 35099
    faces with concavity > 80  degrees                     : 2
    faces with skewness > 4   (internal) or 20  (boundary) : 0
    faces with interpolation weights (0..1)  < 0.05        : 0
    faces with volume ratio of neighbour cells < 0.01      : 0
    faces with face twist < 0.02                           : 1
    faces on cells with determinant < 0.001                : 0
Detected 0 error faces on boundaries that have been merged. These will be restored to their original faces.

Detected 35102 error faces in mesh. Restoring neighbours of faces in error.

Edge intersection testing:
    Number of edges             : 823546
    Number of edges to retest   : 307502
    Number of intersected edges : 8338
Snapped mesh : cells:260509  faces:823546  points:302985
Cells per refinement level:
    0	36614
    1	6858
    2	152230
    3	64807
Writing mesh to time constant
Wrote mesh in = 3.04228 s.
Mesh snapped in = 69.1715 s.
Checking final mesh ...
Checking faces in error :
    non-orthogonality > 65  degrees                        : 35082
    faces with concavity > 80  degrees                     : 2
    faces with skewness > 4   (internal) or 20  (boundary) : 0
    faces with interpolation weights (0..1)  < 0.05        : 0
    faces with volume ratio of neighbour cells < 0.01      : 0
    faces with face twist < 0.02                           : 1
    faces on cells with determinant < 0.001                : 0
Finished meshing with 35085 illegal faces (concave, zero area or negative cell pyramid volume)
Finished meshing in = 83.6553 s.
End

